MODEL 1
REMARK VINA RESULT:      -7.5      0.000      0.000
REMARK  Name = C:\Users\hp\OneDrive\Bureau\molecule article\SERIE MRZK\SERIE 4 A\DOC.9C8Q\lig2.pdb
REMARK  4 active torsions:
REMARK  status: ('A' for Active; 'I' for Inactive)
REMARK    1  A    between atoms: C_13  and  O_14
REMARK    2  A    between atoms: C_18  and  C_19
REMARK    3  A    between atoms: C_24  and  C_28
REMARK    4  A    between atoms: O_29  and  C_32
REMARK                            x       y       z     vdW  Elec       q    Type
REMARK                         _______ _______ _______ _____ _____    ______ ____
ROOT
ATOM      2  C   UNK     1      -8.862  17.683   2.246  0.00  0.00    +0.000 A 
ATOM      3  O   UNK     1     -11.370  15.203   0.282  0.00  0.00    +0.000 OA
ATOM      6  C   UNK     1     -10.557  16.033   0.987  0.00  0.00    +0.000 A 
ATOM      7  C   UNK     1     -10.623  16.164   2.326  0.00  0.00    +0.000 A 
ATOM      8  C   UNK     1      -9.765  16.995   2.969  0.00  0.00    +0.000 A 
ATOM     10  C   UNK     1      -8.787  17.564   0.917  0.00  0.00    +0.000 A 
ATOM     11  C   UNK     1      -9.636  16.735   0.301  0.00  0.00    +0.000 A 
ATOM     14  C   UNK     1     -12.387  14.566   0.936  0.00  0.00    +0.000 A 
ATOM     17  O   UNK     1     -11.681  15.466   4.204  0.00  0.00    +0.000 OA
ATOM     21  C   UNK     1     -11.571  15.437   2.991  0.00  0.00    +0.000 A 
ATOM     22  C   UNK     1     -12.442  14.648   2.286  0.00  0.00    +0.000 A 
ENDROOT
BRANCH  14  13
ATOM      1  C   UNK     1     -15.368  13.786  -0.913  0.00  0.00    +0.000 A 
ATOM      4  C   UNK     1     -14.444  14.400  -0.156  0.00  0.00    +0.000 A 
ATOM      5  C   UNK     1     -13.083  12.595  -0.315  0.00  0.00    +0.000 A 
ATOM     13  C   UNK     1     -13.249  13.848   0.161  0.00  0.00    +0.000 A 
ATOM     16  C   UNK     1     -16.181  11.842  -2.246  0.00  0.00    +0.000 C 
ATOM     18  C   UNK     1     -15.158  12.552  -1.393  0.00  0.00    +0.000 A 
ATOM     20  C   UNK     1     -13.995  11.966  -1.071  0.00  0.00    +0.000 A 
ENDBRANCH  14  13
BRANCH   8   9
ATOM      9  O   UNK     1      -9.753  17.200   4.317  0.00  0.00    +0.000 OA
ATOM     15  H   UNK     1      -9.403  16.409   4.759  0.00  0.00    +0.000 HD
ENDBRANCH   8   9
BRANCH  22  19
ATOM     12  H   UNK     1     -13.687  13.208   2.519  0.00  0.00    +0.000 HD
ATOM     19  O   UNK     1     -13.293  13.911   3.056  0.00  0.00    +0.000 OA
ENDBRANCH  22  19
TORSDOF 3
ENDMDL
MODEL 2
REMARK VINA RESULT:      -7.4      2.525      6.955
REMARK  Name = C:\Users\hp\OneDrive\Bureau\molecule article\SERIE MRZK\SERIE 4 A\DOC.9C8Q\lig2.pdb
REMARK  4 active torsions:
REMARK  status: ('A' for Active; 'I' for Inactive)
REMARK    1  A    between atoms: C_13  and  O_14
REMARK    2  A    between atoms: C_18  and  C_19
REMARK    3  A    between atoms: C_24  and  C_28
REMARK    4  A    between atoms: O_29  and  C_32
REMARK                            x       y       z     vdW  Elec       q    Type
REMARK                         _______ _______ _______ _____ _____    ______ ____
ROOT
ATOM      2  C   UNK     1     -17.898  12.846  -1.875  0.00  0.00    +0.000 A 
ATOM      3  O   UNK     1     -15.176  14.254   0.754  0.00  0.00    +0.000 OA
ATOM      6  C   UNK     1     -16.052  13.757  -0.159  0.00  0.00    +0.000 A 
ATOM      7  C   UNK     1     -15.718  12.813  -1.061  0.00  0.00    +0.000 A 
ATOM      8  C   UNK     1     -16.649  12.347  -1.930  0.00  0.00    +0.000 A 
ATOM     10  C   UNK     1     -18.242  13.784  -0.987  0.00  0.00    +0.000 A 
ATOM     11  C   UNK     1     -17.313  14.227  -0.135  0.00  0.00    +0.000 A 
ATOM     14  C   UNK     1     -13.864  13.879   0.679  0.00  0.00    +0.000 A 
ATOM     17  O   UNK     1     -14.046  11.483  -1.815  0.00  0.00    +0.000 OA
ATOM     21  C   UNK     1     -14.429  12.359  -1.059  0.00  0.00    +0.000 A 
ATOM     22  C   UNK     1     -13.518  12.900  -0.189  0.00  0.00    +0.000 A 
ENDROOT
BRANCH  14  13
ATOM      1  C   UNK     1     -11.530  16.334   1.878  0.00  0.00    +0.000 A 
ATOM      4  C   UNK     1     -12.391  15.636   1.119  0.00  0.00    +0.000 A 
ATOM      5  C   UNK     1     -12.640  14.105   2.772  0.00  0.00    +0.000 A 
ATOM     13  C   UNK     1     -13.006  14.504   1.534  0.00  0.00    +0.000 A 
ATOM     16  C   UNK     1     -10.246  16.691   3.985  0.00  0.00    +0.000 C 
ATOM     18  C   UNK     1     -11.210  15.924   3.114  0.00  0.00    +0.000 A 
ATOM     20  C   UNK     1     -11.781  14.789   3.543  0.00  0.00    +0.000 A 
ENDBRANCH  14  13
BRANCH   8   9
ATOM      9  O   UNK     1     -16.412  11.398  -2.880  0.00  0.00    +0.000 OA
ATOM     15  H   UNK     1     -16.587  11.771  -3.758  0.00  0.00    +0.000 HD
ENDBRANCH   8   9
BRANCH  22  19
ATOM     12  H   UNK     1     -12.073  11.959   0.650  0.00  0.00    +0.000 HD
ATOM     19  O   UNK     1     -12.285  12.318  -0.223  0.00  0.00    +0.000 OA
ENDBRANCH  22  19
TORSDOF 3
ENDMDL
MODEL 3
REMARK VINA RESULT:      -7.0      2.725      6.935
REMARK  Name = C:\Users\hp\OneDrive\Bureau\molecule article\SERIE MRZK\SERIE 4 A\DOC.9C8Q\lig2.pdb
REMARK  4 active torsions:
REMARK  status: ('A' for Active; 'I' for Inactive)
REMARK    1  A    between atoms: C_13  and  O_14
REMARK    2  A    between atoms: C_18  and  C_19
REMARK    3  A    between atoms: C_24  and  C_28
REMARK    4  A    between atoms: O_29  and  C_32
REMARK                            x       y       z     vdW  Elec       q    Type
REMARK                         _______ _______ _______ _____ _____    ______ ____
ROOT
ATOM      2  C   UNK     1     -17.144  12.672  -2.772  0.00  0.00    +0.000 A 
ATOM      3  O   UNK     1     -14.159  14.002  -0.402  0.00  0.00    +0.000 OA
ATOM      6  C   UNK     1     -15.192  13.599  -1.188  0.00  0.00    +0.000 A 
ATOM      7  C   UNK     1     -16.196  14.416  -1.559  0.00  0.00    +0.000 A 
ATOM      8  C   UNK     1     -17.186  13.953  -2.363  0.00  0.00    +0.000 A 
ATOM     10  C   UNK     1     -16.155  11.849  -2.410  0.00  0.00    +0.000 A 
ATOM     11  C   UNK     1     -15.186  12.325  -1.623  0.00  0.00    +0.000 A 
ATOM     14  C   UNK     1     -14.198  15.253   0.146  0.00  0.00    +0.000 A 
ATOM     17  O   UNK     1     -17.020  16.522  -1.409  0.00  0.00    +0.000 OA
ATOM     21  C   UNK     1     -16.174  15.703  -1.098  0.00  0.00    +0.000 A 
ATOM     22  C   UNK     1     -15.173  16.104  -0.250  0.00  0.00    +0.000 A 
ENDROOT
BRANCH  14  13
ATOM      1  C   UNK     1     -11.279  16.882   1.462  0.00  0.00    +0.000 A 
ATOM      4  C   UNK     1     -12.297  16.500   0.674  0.00  0.00    +0.000 A 
ATOM      5  C   UNK     1     -12.968  14.999   2.232  0.00  0.00    +0.000 A 
ATOM     13  C   UNK     1     -13.204  15.560   1.026  0.00  0.00    +0.000 A 
ATOM     16  C   UNK     1      -9.954  16.736   3.570  0.00  0.00    +0.000 C 
ATOM     18  C   UNK     1     -11.090  16.324   2.666  0.00  0.00    +0.000 A 
ATOM     20  C   UNK     1     -11.956  15.367   3.032  0.00  0.00    +0.000 A 
ENDBRANCH  14  13
BRANCH   8   9
ATOM      9  O   UNK     1     -18.245  14.697  -2.791  0.00  0.00    +0.000 OA
ATOM     15  H   UNK     1     -19.016  14.119  -2.911  0.00  0.00    +0.000 HD
ENDBRANCH   8   9
BRANCH  22  19
ATOM     12  H   UNK     1     -15.428  17.516   1.022  0.00  0.00    +0.000 HD
ATOM     19  O   UNK     1     -15.208  17.426   0.084  0.00  0.00    +0.000 OA
ENDBRANCH  22  19
TORSDOF 3
ENDMDL
MODEL 4
REMARK VINA RESULT:      -7.0      2.208      3.638
REMARK  Name = C:\Users\hp\OneDrive\Bureau\molecule article\SERIE MRZK\SERIE 4 A\DOC.9C8Q\lig2.pdb
REMARK  4 active torsions:
REMARK  status: ('A' for Active; 'I' for Inactive)
REMARK    1  A    between atoms: C_13  and  O_14
REMARK    2  A    between atoms: C_18  and  C_19
REMARK    3  A    between atoms: C_24  and  C_28
REMARK    4  A    between atoms: O_29  and  C_32
REMARK                            x       y       z     vdW  Elec       q    Type
REMARK                         _______ _______ _______ _____ _____    ______ ____
ROOT
ATOM      2  C   UNK     1     -10.929  15.398   2.922  0.00  0.00    +0.000 A 
ATOM      3  O   UNK     1     -14.336  14.548   0.929  0.00  0.00    +0.000 OA
ATOM      6  C   UNK     1     -13.179  14.874   1.565  0.00  0.00    +0.000 A 
ATOM      7  C   UNK     1     -12.513  16.022   1.335  0.00  0.00    +0.000 A 
ATOM      8  C   UNK     1     -11.375  16.293   2.022  0.00  0.00    +0.000 A 
ATOM     10  C   UNK     1     -11.579  14.255   3.158  0.00  0.00    +0.000 A 
ATOM     11  C   UNK     1     -12.702  14.007   2.477  0.00  0.00    +0.000 A 
ATOM     14  C   UNK     1     -14.781  15.353  -0.081  0.00  0.00    +0.000 A 
ATOM     17  O   UNK     1     -12.508  17.954   0.153  0.00  0.00    +0.000 OA
ATOM     21  C   UNK     1     -13.023  16.879   0.402  0.00  0.00    +0.000 A 
ATOM     22  C   UNK     1     -14.152  16.532  -0.296  0.00  0.00    +0.000 A 
ENDROOT
BRANCH  14  13
ATOM      1  C   UNK     1     -16.677  13.640  -2.607  0.00  0.00    +0.000 A 
ATOM      4  C   UNK     1     -15.677  14.131  -1.856  0.00  0.00    +0.000 A 
ATOM      5  C   UNK     1     -17.170  15.200  -0.529  0.00  0.00    +0.000 A 
ATOM     13  C   UNK     1     -15.872  14.913  -0.769  0.00  0.00    +0.000 A 
ATOM     16  C   UNK     1     -19.097  13.382  -3.151  0.00  0.00    +0.000 C 
ATOM     18  C   UNK     1     -17.956  13.922  -2.323  0.00  0.00    +0.000 A 
ATOM     20  C   UNK     1     -18.182  14.720  -1.268  0.00  0.00    +0.000 A 
ENDBRANCH  14  13
BRANCH   8   9
ATOM      9  O   UNK     1     -10.627  17.422   1.861  0.00  0.00    +0.000 OA
ATOM     15  H   UNK     1      -9.817  17.349   2.391  0.00  0.00    +0.000 HD
ENDBRANCH   8   9
BRANCH  22  19
ATOM     12  H   UNK     1     -15.409  17.173  -1.594  0.00  0.00    +0.000 HD
ATOM     19  O   UNK     1     -14.614  17.494  -1.145  0.00  0.00    +0.000 OA
ENDBRANCH  22  19
TORSDOF 3
ENDMDL
MODEL 5
REMARK VINA RESULT:      -7.0      2.080      2.998
REMARK  Name = C:\Users\hp\OneDrive\Bureau\molecule article\SERIE MRZK\SERIE 4 A\DOC.9C8Q\lig2.pdb
REMARK  4 active torsions:
REMARK  status: ('A' for Active; 'I' for Inactive)
REMARK    1  A    between atoms: C_13  and  O_14
REMARK    2  A    between atoms: C_18  and  C_19
REMARK    3  A    between atoms: C_24  and  C_28
REMARK    4  A    between atoms: O_29  and  C_32
REMARK                            x       y       z     vdW  Elec       q    Type
REMARK                         _______ _______ _______ _____ _____    ______ ____
ROOT
ATOM      2  C   UNK     1     -10.955  17.563   1.216  0.00  0.00    +0.000 A 
ATOM      3  O   UNK     1     -14.146  16.043  -0.735  0.00  0.00    +0.000 OA
ATOM      6  C   UNK     1     -13.080  16.520  -0.038  0.00  0.00    +0.000 A 
ATOM      7  C   UNK     1     -12.548  15.879   1.021  0.00  0.00    +0.000 A 
ATOM      8  C   UNK     1     -11.470  16.401   1.657  0.00  0.00    +0.000 A 
ATOM     10  C   UNK     1     -11.474  18.210   0.169  0.00  0.00    +0.000 A 
ATOM     11  C   UNK     1     -12.532  17.678  -0.450  0.00  0.00    +0.000 A 
ATOM     14  C   UNK     1     -14.792  14.932  -0.271  0.00  0.00    +0.000 A 
ATOM     17  O   UNK     1     -12.697  14.041   2.338  0.00  0.00    +0.000 OA
ATOM     21  C   UNK     1     -13.130  14.706   1.414  0.00  0.00    +0.000 A 
ATOM     22  C   UNK     1     -14.247  14.249   0.762  0.00  0.00    +0.000 A 
ENDROOT
BRANCH  14  13
ATOM      1  C   UNK     1     -16.861  13.437  -2.799  0.00  0.00    +0.000 A 
ATOM      4  C   UNK     1     -15.811  13.847  -2.069  0.00  0.00    +0.000 A 
ATOM      5  C   UNK     1     -17.202  14.892  -0.617  0.00  0.00    +0.000 A 
ATOM     13  C   UNK     1     -15.928  14.572  -0.932  0.00  0.00    +0.000 A 
ATOM     16  C   UNK     1     -19.311  13.299  -3.245  0.00  0.00    +0.000 C 
ATOM     18  C   UNK     1     -18.115  13.749  -2.441  0.00  0.00    +0.000 A 
ATOM     20  C   UNK     1     -18.263  14.492  -1.335  0.00  0.00    +0.000 A 
ENDBRANCH  14  13
BRANCH   8   9
ATOM      9  O   UNK     1     -10.861  15.833   2.737  0.00  0.00    +0.000 OA
ATOM     15  H   UNK     1     -11.480  15.818   3.485  0.00  0.00    +0.000 HD
ENDBRANCH   8   9
BRANCH  22  19
ATOM     12  H   UNK     1     -14.626  12.392   0.468  0.00  0.00    +0.000 HD
ATOM     19  O   UNK     1     -14.696  13.034   1.189  0.00  0.00    +0.000 OA
ENDBRANCH  22  19
TORSDOF 3
ENDMDL
MODEL 6
REMARK VINA RESULT:      -6.9      4.558      7.324
REMARK  Name = C:\Users\hp\OneDrive\Bureau\molecule article\SERIE MRZK\SERIE 4 A\DOC.9C8Q\lig2.pdb
REMARK  4 active torsions:
REMARK  status: ('A' for Active; 'I' for Inactive)
REMARK    1  A    between atoms: C_13  and  O_14
REMARK    2  A    between atoms: C_18  and  C_19
REMARK    3  A    between atoms: C_24  and  C_28
REMARK    4  A    between atoms: O_29  and  C_32
REMARK                            x       y       z     vdW  Elec       q    Type
REMARK                         _______ _______ _______ _____ _____    ______ ____
ROOT
ATOM      2  C   UNK     1     -16.681  12.883  -1.315  0.00  0.00    +0.000 A 
ATOM      3  O   UNK     1     -16.253  16.818  -2.107  0.00  0.00    +0.000 OA
ATOM      6  C   UNK     1     -16.355  15.497  -1.807  0.00  0.00    +0.000 A 
ATOM      7  C   UNK     1     -15.711  14.927  -0.770  0.00  0.00    +0.000 A 
ATOM      8  C   UNK     1     -15.875  13.604  -0.515  0.00  0.00    +0.000 A 
ATOM     10  C   UNK     1     -17.324  13.435  -2.348  0.00  0.00    +0.000 A 
ATOM     11  C   UNK     1     -17.156  14.741  -2.581  0.00  0.00    +0.000 A 
ATOM     14  C   UNK     1     -15.361  17.585  -1.411  0.00  0.00    +0.000 A 
ATOM     17  O   UNK     1     -14.311  15.302   0.971  0.00  0.00    +0.000 OA
ATOM     21  C   UNK     1     -14.905  15.722  -0.006  0.00  0.00    +0.000 A 
ATOM     22  C   UNK     1     -14.740  17.042  -0.338  0.00  0.00    +0.000 A 
ENDROOT
BRANCH  14  13
ATOM      1  C   UNK     1     -13.848  20.414  -3.028  0.00  0.00    +0.000 A 
ATOM      4  C   UNK     1     -14.103  19.182  -2.557  0.00  0.00    +0.000 A 
ATOM      5  C   UNK     1     -16.014  19.924  -1.591  0.00  0.00    +0.000 A 
ATOM     13  C   UNK     1     -15.206  18.870  -1.837  0.00  0.00    +0.000 A 
ATOM     16  C   UNK     1     -14.423  22.824  -3.308  0.00  0.00    +0.000 C 
ATOM     18  C   UNK     1     -14.687  21.432  -2.789  0.00  0.00    +0.000 A 
ATOM     20  C   UNK     1     -15.775  21.161  -2.052  0.00  0.00    +0.000 A 
ENDBRANCH  14  13
BRANCH   8   9
ATOM      9  O   UNK     1     -15.268  12.934   0.505  0.00  0.00    +0.000 OA
ATOM     15  H   UNK     1     -15.434  13.400   1.340  0.00  0.00    +0.000 HD
ENDBRANCH   8   9
BRANCH  22  19
ATOM     12  H   UNK     1     -14.484  17.931   1.342  0.00  0.00    +0.000 HD
ATOM     19  O   UNK     1     -13.976  17.758   0.537  0.00  0.00    +0.000 OA
ENDBRANCH  22  19
TORSDOF 3
ENDMDL
MODEL 7
REMARK VINA RESULT:      -6.6      4.232      6.426
REMARK  Name = C:\Users\hp\OneDrive\Bureau\molecule article\SERIE MRZK\SERIE 4 A\DOC.9C8Q\lig2.pdb
REMARK  4 active torsions:
REMARK  status: ('A' for Active; 'I' for Inactive)
REMARK    1  A    between atoms: C_13  and  O_14
REMARK    2  A    between atoms: C_18  and  C_19
REMARK    3  A    between atoms: C_24  and  C_28
REMARK    4  A    between atoms: O_29  and  C_32
REMARK                            x       y       z     vdW  Elec       q    Type
REMARK                         _______ _______ _______ _____ _____    ______ ____
ROOT
ATOM      2  C   UNK     1     -16.542  16.019  -0.733  0.00  0.00    +0.000 A 
ATOM      3  O   UNK     1     -13.831  13.032  -0.901  0.00  0.00    +0.000 OA
ATOM      6  C   UNK     1     -14.776  14.010  -0.877  0.00  0.00    +0.000 A 
ATOM      7  C   UNK     1     -16.032  13.829  -1.329  0.00  0.00    +0.000 A 
ATOM      8  C   UNK     1     -16.931  14.842  -1.256  0.00  0.00    +0.000 A 
ATOM     10  C   UNK     1     -15.299  16.213  -0.283  0.00  0.00    +0.000 A 
ATOM     11  C   UNK     1     -14.428  15.201  -0.358  0.00  0.00    +0.000 A 
ATOM     14  C   UNK     1     -14.121  11.852  -1.525  0.00  0.00    +0.000 A 
ATOM     17  O   UNK     1     -17.470  12.342  -2.253  0.00  0.00    +0.000 OA
ATOM     21  C   UNK     1     -16.351  12.607  -1.852  0.00  0.00    +0.000 A 
ATOM     22  C   UNK     1     -15.389  11.634  -1.944  0.00  0.00    +0.000 A 
ENDROOT
BRANCH  14  13
ATOM      1  C   UNK     1     -11.231  10.224  -2.906  0.00  0.00    +0.000 A 
ATOM      4  C   UNK     1     -12.270  11.049  -2.699  0.00  0.00    +0.000 A 
ATOM      5  C   UNK     1     -12.815   9.925  -0.809  0.00  0.00    +0.000 A 
ATOM     13  C   UNK     1     -13.098  10.957  -1.633  0.00  0.00    +0.000 A 
ATOM     16  C   UNK     1      -9.799   8.286  -2.262  0.00  0.00    +0.000 C 
ATOM     18  C   UNK     1     -10.962   9.226  -2.052  0.00  0.00    +0.000 A 
ATOM     20  C   UNK     1     -11.782   9.090  -1.000  0.00  0.00    +0.000 A 
ENDBRANCH  14  13
BRANCH   8   9
ATOM      9  O   UNK     1     -18.222  14.761  -1.687  0.00  0.00    +0.000 OA
ATOM     15  H   UNK     1     -18.403  13.858  -1.992  0.00  0.00    +0.000 HD
ENDBRANCH   8   9
BRANCH  22  19
ATOM     12  H   UNK     1     -15.208  10.082  -3.056  0.00  0.00    +0.000 HD
ATOM     19  O   UNK     1     -15.838  10.433  -2.411  0.00  0.00    +0.000 OA
ENDBRANCH  22  19
TORSDOF 3
ENDMDL
MODEL 8
REMARK VINA RESULT:      -6.5      4.831      5.782
REMARK  Name = C:\Users\hp\OneDrive\Bureau\molecule article\SERIE MRZK\SERIE 4 A\DOC.9C8Q\lig2.pdb
REMARK  4 active torsions:
REMARK  status: ('A' for Active; 'I' for Inactive)
REMARK    1  A    between atoms: C_13  and  O_14
REMARK    2  A    between atoms: C_18  and  C_19
REMARK    3  A    between atoms: C_24  and  C_28
REMARK    4  A    between atoms: O_29  and  C_32
REMARK                            x       y       z     vdW  Elec       q    Type
REMARK                         _______ _______ _______ _____ _____    ______ ____
ROOT
ATOM      2  C   UNK     1     -12.153  20.549  -0.955  0.00  0.00    +0.000 A 
ATOM      3  O   UNK     1     -14.722  17.437  -1.084  0.00  0.00    +0.000 OA
ATOM      6  C   UNK     1     -13.896  18.516  -1.060  0.00  0.00    +0.000 A 
ATOM      7  C   UNK     1     -14.336  19.781  -1.205  0.00  0.00    +0.000 A 
ATOM      8  C   UNK     1     -13.458  20.814  -1.150  0.00  0.00    +0.000 A 
ATOM     10  C   UNK     1     -11.704  19.299  -0.812  0.00  0.00    +0.000 A 
ATOM     11  C   UNK     1     -12.584  18.294  -0.863  0.00  0.00    +0.000 A 
ATOM     14  C   UNK     1     -16.040  17.623  -1.395  0.00  0.00    +0.000 A 
ATOM     17  O   UNK     1     -16.166  21.081  -1.512  0.00  0.00    +0.000 OA
ATOM     21  C   UNK     1     -15.674  19.972  -1.405  0.00  0.00    +0.000 A 
ATOM     22  C   UNK     1     -16.509  18.888  -1.499  0.00  0.00    +0.000 A 
ENDROOT
BRANCH  14  13
ATOM      1  C   UNK     1     -17.324  14.615  -2.883  0.00  0.00    +0.000 A 
ATOM      4  C   UNK     1     -16.636  15.744  -2.645  0.00  0.00    +0.000 A 
ATOM      5  C   UNK     1     -17.747  16.035  -0.692  0.00  0.00    +0.000 A 
ATOM     13  C   UNK     1     -16.794  16.496  -1.531  0.00  0.00    +0.000 A 
ATOM     16  C   UNK     1     -19.028  12.905  -2.258  0.00  0.00    +0.000 C 
ATOM     18  C   UNK     1     -18.243  14.170  -2.014  0.00  0.00    +0.000 A 
ATOM     20  C   UNK     1     -18.444  14.910  -0.913  0.00  0.00    +0.000 A 
ENDBRANCH  14  13
BRANCH   8   9
ATOM      9  O   UNK     1     -13.801  22.127  -1.287  0.00  0.00    +0.000 OA
ATOM     15  H   UNK     1     -14.306  22.243  -2.108  0.00  0.00    +0.000 HD
ENDBRANCH   8   9
BRANCH  22  19
ATOM     12  H   UNK     1     -17.991  20.081  -1.258  0.00  0.00    +0.000 HD
ATOM     19  O   UNK     1     -17.832  19.198  -1.622  0.00  0.00    +0.000 OA
ENDBRANCH  22  19
TORSDOF 3
ENDMDL
MODEL 9
REMARK VINA RESULT:      -6.3      4.633      6.148
REMARK  Name = C:\Users\hp\OneDrive\Bureau\molecule article\SERIE MRZK\SERIE 4 A\DOC.9C8Q\lig2.pdb
REMARK  4 active torsions:
REMARK  status: ('A' for Active; 'I' for Inactive)
REMARK    1  A    between atoms: C_13  and  O_14
REMARK    2  A    between atoms: C_18  and  C_19
REMARK    3  A    between atoms: C_24  and  C_28
REMARK    4  A    between atoms: O_29  and  C_32
REMARK                            x       y       z     vdW  Elec       q    Type
REMARK                         _______ _______ _______ _____ _____    ______ ____
ROOT
ATOM      2  C   UNK     1     -16.879  20.785  -1.839  0.00  0.00    +0.000 A 
ATOM      3  O   UNK     1     -14.216  17.756  -1.666  0.00  0.00    +0.000 OA
ATOM      6  C   UNK     1     -15.152  18.740  -1.716  0.00  0.00    +0.000 A 
ATOM      7  C   UNK     1     -16.423  18.567  -1.305  0.00  0.00    +0.000 A 
ATOM      8  C   UNK     1     -17.300  19.600  -1.362  0.00  0.00    +0.000 A 
ATOM     10  C   UNK     1     -15.621  20.970  -2.252  0.00  0.00    +0.000 A 
ATOM     11  C   UNK     1     -14.769  19.943  -2.182  0.00  0.00    +0.000 A 
ATOM     14  C   UNK     1     -14.603  16.496  -1.306  0.00  0.00    +0.000 A 
ATOM     17  O   UNK     1     -17.895  17.093  -0.414  0.00  0.00    +0.000 OA
ATOM     21  C   UNK     1     -16.779  17.333  -0.838  0.00  0.00    +0.000 A 
ATOM     22  C   UNK     1     -15.863  16.312  -0.846  0.00  0.00    +0.000 A 
ENDROOT
BRANCH  14  13
ATOM      1  C   UNK     1     -11.744  14.515  -0.407  0.00  0.00    +0.000 A 
ATOM      4  C   UNK     1     -12.722  15.435  -0.420  0.00  0.00    +0.000 A 
ATOM      5  C   UNK     1     -13.488  14.623  -2.392  0.00  0.00    +0.000 A 
ATOM     13  C   UNK     1     -13.655  15.521  -1.397  0.00  0.00    +0.000 A 
ATOM     16  C   UNK     1     -10.535  12.575  -1.404  0.00  0.00    +0.000 C 
ATOM     18  C   UNK     1     -11.625  13.619  -1.397  0.00  0.00    +0.000 A 
ATOM     20  C   UNK     1     -12.517  13.698  -2.396  0.00  0.00    +0.000 A 
ENDBRANCH  14  13
BRANCH   8   9
ATOM      9  O   UNK     1     -18.606  19.527  -0.974  0.00  0.00    +0.000 OA
ATOM     15  H   UNK     1     -18.910  18.607  -1.042  0.00  0.00    +0.000 HD
ENDBRANCH   8   9
BRANCH  22  19
ATOM     12  H   UNK     1     -17.003  14.770  -0.841  0.00  0.00    +0.000 HD
ATOM     19  O   UNK     1     -16.304  15.148  -0.289  0.00  0.00    +0.000 OA
ENDBRANCH  22  19
TORSDOF 3
ENDMDL
MODEL 10
REMARK VINA RESULT:      -6.3      3.709      6.411
REMARK  Name = C:\Users\hp\OneDrive\Bureau\molecule article\SERIE MRZK\SERIE 4 A\DOC.9C8Q\lig2.pdb
REMARK  4 active torsions:
REMARK  status: ('A' for Active; 'I' for Inactive)
REMARK    1  A    between atoms: C_13  and  O_14
REMARK    2  A    between atoms: C_18  and  C_19
REMARK    3  A    between atoms: C_24  and  C_28
REMARK    4  A    between atoms: O_29  and  C_32
REMARK                            x       y       z     vdW  Elec       q    Type
REMARK                         _______ _______ _______ _____ _____    ______ ____
ROOT
ATOM      2  C   UNK     1     -14.057   9.831  -2.099  0.00  0.00    +0.000 A 
ATOM      3  O   UNK     1     -15.652  13.515  -1.672  0.00  0.00    +0.000 OA
ATOM      6  C   UNK     1     -15.068  12.294  -1.799  0.00  0.00    +0.000 A 
ATOM      7  C   UNK     1     -13.865  11.997  -1.269  0.00  0.00    +0.000 A 
ATOM      8  C   UNK     1     -13.350  10.750  -1.416  0.00  0.00    +0.000 A 
ATOM     10  C   UNK     1     -15.250  10.113  -2.630  0.00  0.00    +0.000 A 
ATOM     11  C   UNK     1     -15.745  11.345  -2.471  0.00  0.00    +0.000 A 
ATOM     14  C   UNK     1     -14.941  14.529  -1.095  0.00  0.00    +0.000 A 
ATOM     17  O   UNK     1     -12.129  12.797  -0.054  0.00  0.00    +0.000 OA
ATOM     21  C   UNK     1     -13.204  12.984  -0.595  0.00  0.00    +0.000 A 
ATOM     22  C   UNK     1     -13.751  14.239  -0.518  0.00  0.00    +0.000 A 
ENDROOT
BRANCH  14  13
ATOM      1  C   UNK     1     -17.463  17.044  -0.622  0.00  0.00    +0.000 A 
ATOM      4  C   UNK     1     -16.792  15.880  -0.656  0.00  0.00    +0.000 A 
ATOM      5  C   UNK     1     -14.998  16.916  -1.574  0.00  0.00    +0.000 A 
ATOM     13  C   UNK     1     -15.523  15.761  -1.110  0.00  0.00    +0.000 A 
ATOM     16  C   UNK     1     -17.633  19.497  -1.037  0.00  0.00    +0.000 C 
ATOM     18  C   UNK     1     -16.900  18.178  -1.065  0.00  0.00    +0.000 A 
ATOM     20  C   UNK     1     -15.653  18.087  -1.549  0.00  0.00    +0.000 A 
ENDBRANCH  14  13
BRANCH   8   9
ATOM      9  O   UNK     1     -12.143  10.351  -0.922  0.00  0.00    +0.000 OA
ATOM     15  H   UNK     1     -11.500  10.301  -1.647  0.00  0.00    +0.000 HD
ENDBRANCH   8   9
BRANCH  22  19
ATOM     12  H   UNK     1     -12.632  14.654   0.983  0.00  0.00    +0.000 HD
ATOM     19  O   UNK     1     -13.043  15.123   0.243  0.00  0.00    +0.000 OA
ENDBRANCH  22  19
TORSDOF 3
ENDMDL
