MODEL 1
REMARK VINA RESULT:      -7.2      0.000      0.000
REMARK  Name = C:\Users\hp\OneDrive\Bureau\molecule article\SERIE MRZK\SERIE 4 A\DOC.9C8Q\lig7.pdb
REMARK  4 active torsions:
REMARK  status: ('A' for Active; 'I' for Inactive)
REMARK    1  A    between atoms: C_1  and  C_28
REMARK    2  A    between atoms: O_7  and  C_13
REMARK    3  A    between atoms: C_10  and  C_25
REMARK    4  A    between atoms: O_12  and  C_27
REMARK                            x       y       z     vdW  Elec       q    Type
REMARK                         _______ _______ _______ _____ _____    ______ ____
ROOT
ATOM      2  C   UNK     1     -11.668  15.198   3.043  0.00  0.00    +0.000 A 
ATOM      3  C   UNK     1      -9.374  17.835   0.955  0.00  0.00    +0.000 A 
ATOM      4  C   UNK     1     -11.122  16.280   1.060  0.00  0.00    +0.000 A 
ATOM      6  O   UNK     1     -12.097  15.618   0.383  0.00  0.00    +0.000 OA
ATOM      7  C   UNK     1      -9.142  17.632   2.256  0.00  0.00    +0.000 A 
ATOM     11  C   UNK     1      -9.873  16.767   2.981  0.00  0.00    +0.000 A 
ATOM     17  C   UNK     1     -10.364  17.151   0.371  0.00  0.00    +0.000 A 
ATOM     18  C   UNK     1     -12.954  14.815   1.080  0.00  0.00    +0.000 A 
ATOM     19  O   UNK     1     -11.499  14.933   4.219  0.00  0.00    +0.000 OA
ATOM     20  C   UNK     1     -12.698  14.574   2.387  0.00  0.00    +0.000 A 
ATOM     23  C   UNK     1     -10.877  16.088   2.371  0.00  0.00    +0.000 A 
ENDROOT
BRANCH  18   8
ATOM      8  C   UNK     1     -13.991  14.279   0.374  0.00  0.00    +0.000 A 
ATOM     13  C   UNK     1     -16.202  14.588  -0.440  0.00  0.00    +0.000 A 
ATOM     14  C   UNK     1     -15.128  12.604  -0.863  0.00  0.00    +0.000 A 
ATOM     16  C   UNK     1     -14.058  13.051  -0.185  0.00  0.00    +0.000 A 
ATOM     21  C   UNK     1     -16.215  13.374  -1.006  0.00  0.00    +0.000 A 
ATOM     22  C   UNK     1     -15.120  15.012   0.234  0.00  0.00    +0.000 A 
BRANCH  21   1
ATOM      1  C   UNK     1     -17.270  12.945  -1.664  0.00  0.00    +0.000 C 
ATOM     15  N   UNK     1     -18.200  12.568  -2.245  0.00  0.00    +0.000 NA
ENDBRANCH  21   1
ENDBRANCH  18   8
BRANCH  11   5
ATOM      5  O   UNK     1      -9.549  16.647   4.299  0.00  0.00    +0.000 OA
ATOM      9  H   UNK     1      -8.659  17.005   4.446  0.00  0.00    +0.000 HD
ENDBRANCH  11   5
BRANCH  20  10
ATOM     10  O   UNK     1     -13.372  13.653   3.134  0.00  0.00    +0.000 OA
ATOM     12  H   UNK     1     -14.322  13.737   2.968  0.00  0.00    +0.000 HD
ENDBRANCH  20  10
TORSDOF 4
ENDMDL
MODEL 2
REMARK VINA RESULT:      -7.1      3.555      7.194
REMARK  Name = C:\Users\hp\OneDrive\Bureau\molecule article\SERIE MRZK\SERIE 4 A\DOC.9C8Q\lig7.pdb
REMARK  4 active torsions:
REMARK  status: ('A' for Active; 'I' for Inactive)
REMARK    1  A    between atoms: C_1  and  C_28
REMARK    2  A    between atoms: O_7  and  C_13
REMARK    3  A    between atoms: C_10  and  C_25
REMARK    4  A    between atoms: O_12  and  C_27
REMARK                            x       y       z     vdW  Elec       q    Type
REMARK                         _______ _______ _______ _____ _____    ______ ____
ROOT
ATOM      2  C   UNK     1     -14.854  12.362  -1.250  0.00  0.00    +0.000 A 
ATOM      3  C   UNK     1     -18.636  13.862  -1.075  0.00  0.00    +0.000 A 
ATOM      4  C   UNK     1     -16.430  13.779  -0.294  0.00  0.00    +0.000 A 
ATOM      6  O   UNK     1     -15.525  14.245   0.606  0.00  0.00    +0.000 OA
ATOM      7  C   UNK     1     -18.328  12.930  -1.983  0.00  0.00    +0.000 A 
ATOM     11  C   UNK     1     -17.093  12.406  -2.072  0.00  0.00    +0.000 A 
ATOM     17  C   UNK     1     -17.679  14.274  -0.237  0.00  0.00    +0.000 A 
ATOM     18  C   UNK     1     -14.223  13.846   0.498  0.00  0.00    +0.000 A 
ATOM     19  O   UNK     1     -14.505  11.491  -2.024  0.00  0.00    +0.000 OA
ATOM     20  C   UNK     1     -13.915  12.873  -0.391  0.00  0.00    +0.000 A 
ATOM     23  C   UNK     1     -16.135  12.842  -1.217  0.00  0.00    +0.000 A 
ENDROOT
BRANCH  18   8
ATOM      8  C   UNK     1     -13.334  14.443   1.343  0.00  0.00    +0.000 A 
ATOM     13  C   UNK     1     -11.872  16.282   1.704  0.00  0.00    +0.000 A 
ATOM     14  C   UNK     1     -12.019  14.646   3.307  0.00  0.00    +0.000 A 
ATOM     16  C   UNK     1     -12.904  13.988   2.540  0.00  0.00    +0.000 A 
ATOM     21  C   UNK     1     -11.496  15.810   2.900  0.00  0.00    +0.000 A 
ATOM     22  C   UNK     1     -12.759  15.605   0.955  0.00  0.00    +0.000 A 
BRANCH  21   1
ATOM      1  C   UNK     1     -10.624  16.460   3.640  0.00  0.00    +0.000 C 
ATOM     15  N   UNK     1      -9.857  17.033   4.294  0.00  0.00    +0.000 NA
ENDBRANCH  21   1
ENDBRANCH  18   8
BRANCH  11   5
ATOM      5  O   UNK     1     -16.894  11.468  -3.040  0.00  0.00    +0.000 OA
ATOM      9  H   UNK     1     -17.322  11.757  -3.862  0.00  0.00    +0.000 HD
ENDBRANCH  11   5
BRANCH  20  10
ATOM     10  O   UNK     1     -12.694  12.269  -0.461  0.00  0.00    +0.000 OA
ATOM     12  H   UNK     1     -12.813  11.311  -0.533  0.00  0.00    +0.000 HD
ENDBRANCH  20  10
TORSDOF 4
ENDMDL
MODEL 3
REMARK VINA RESULT:      -6.9      1.878      3.236
REMARK  Name = C:\Users\hp\OneDrive\Bureau\molecule article\SERIE MRZK\SERIE 4 A\DOC.9C8Q\lig7.pdb
REMARK  4 active torsions:
REMARK  status: ('A' for Active; 'I' for Inactive)
REMARK    1  A    between atoms: C_1  and  C_28
REMARK    2  A    between atoms: O_7  and  C_13
REMARK    3  A    between atoms: C_10  and  C_25
REMARK    4  A    between atoms: O_12  and  C_27
REMARK                            x       y       z     vdW  Elec       q    Type
REMARK                         _______ _______ _______ _____ _____    ______ ____
ROOT
ATOM      2  C   UNK     1     -12.922  17.099   0.330  0.00  0.00    +0.000 A 
ATOM      3  C   UNK     1     -11.395  14.634   3.188  0.00  0.00    +0.000 A 
ATOM      4  C   UNK     1     -13.032  15.153   1.596  0.00  0.00    +0.000 A 
ATOM      6  O   UNK     1     -14.194  14.781   0.998  0.00  0.00    +0.000 OA
ATOM      7  C   UNK     1     -10.764  15.773   2.882  0.00  0.00    +0.000 A 
ATOM     11  C   UNK     1     -11.237  16.616   1.947  0.00  0.00    +0.000 A 
ATOM     17  C   UNK     1     -12.526  14.339   2.540  0.00  0.00    +0.000 A 
ATOM     18  C   UNK     1     -14.668  15.529  -0.042  0.00  0.00    +0.000 A 
ATOM     19  O   UNK     1     -12.427  18.166   0.018  0.00  0.00    +0.000 OA
ATOM     20  C   UNK     1     -14.058  16.702  -0.328  0.00  0.00    +0.000 A 
ATOM     23  C   UNK     1     -12.383  16.296   1.297  0.00  0.00    +0.000 A 
ENDROOT
BRANCH  18   8
ATOM      8  C   UNK     1     -15.766  15.040  -0.689  0.00  0.00    +0.000 A 
ATOM     13  C   UNK     1     -16.581  13.612  -2.405  0.00  0.00    +0.000 A 
ATOM     14  C   UNK     1     -18.080  14.831  -1.166  0.00  0.00    +0.000 A 
ATOM     16  C   UNK     1     -17.059  15.364  -0.474  0.00  0.00    +0.000 A 
ATOM     21  C   UNK     1     -17.852  13.938  -2.139  0.00  0.00    +0.000 A 
ATOM     22  C   UNK     1     -15.577  14.159  -1.699  0.00  0.00    +0.000 A 
BRANCH  21   1
ATOM      1  C   UNK     1     -18.843  13.413  -2.826  0.00  0.00    +0.000 C 
ATOM     15  N   UNK     1     -19.718  12.952  -3.431  0.00  0.00    +0.000 NA
ENDBRANCH  21   1
ENDBRANCH  18   8
BRANCH  11   5
ATOM      5  O   UNK     1     -10.507  17.744   1.715  0.00  0.00    +0.000 OA
ATOM      9  H   UNK     1      -9.874  17.873   2.440  0.00  0.00    +0.000 HD
ENDBRANCH  11   5
BRANCH  20  10
ATOM     10  O   UNK     1     -14.547  17.614  -1.217  0.00  0.00    +0.000 OA
ATOM     12  H   UNK     1     -15.207  18.170  -0.777  0.00  0.00    +0.000 HD
ENDBRANCH  20  10
TORSDOF 4
ENDMDL
MODEL 4
REMARK VINA RESULT:      -6.9      3.474      6.848
REMARK  Name = C:\Users\hp\OneDrive\Bureau\molecule article\SERIE MRZK\SERIE 4 A\DOC.9C8Q\lig7.pdb
REMARK  4 active torsions:
REMARK  status: ('A' for Active; 'I' for Inactive)
REMARK    1  A    between atoms: C_1  and  C_28
REMARK    2  A    between atoms: O_7  and  C_13
REMARK    3  A    between atoms: C_10  and  C_25
REMARK    4  A    between atoms: O_12  and  C_27
REMARK                            x       y       z     vdW  Elec       q    Type
REMARK                         _______ _______ _______ _____ _____    ______ ____
ROOT
ATOM      2  C   UNK     1     -14.813  14.068   0.282  0.00  0.00    +0.000 A 
ATOM      3  C   UNK     1     -17.397  16.914  -1.060  0.00  0.00    +0.000 A 
ATOM      4  C   UNK     1     -15.384  16.299  -0.033  0.00  0.00    +0.000 A 
ATOM      6  O   UNK     1     -14.236  16.719   0.559  0.00  0.00    +0.000 OA
ATOM      7  C   UNK     1     -17.702  15.619  -1.193  0.00  0.00    +0.000 A 
ATOM     11  C   UNK     1     -16.878  14.648  -0.760  0.00  0.00    +0.000 A 
ATOM     17  C   UNK     1     -16.238  17.239  -0.477  0.00  0.00    +0.000 A 
ATOM     18  C   UNK     1     -13.300  15.789   0.915  0.00  0.00    +0.000 A 
ATOM     19  O   UNK     1     -15.033  12.872   0.228  0.00  0.00    +0.000 OA
ATOM     20  C   UNK     1     -13.621  14.478   0.821  0.00  0.00    +0.000 A 
ATOM     23  C   UNK     1     -15.705  14.998  -0.176  0.00  0.00    +0.000 A 
ENDROOT
BRANCH  18   8
ATOM      8  C   UNK     1     -12.114  16.273   1.385  0.00  0.00    +0.000 A 
ATOM     13  C   UNK     1     -10.167  17.550   0.908  0.00  0.00    +0.000 A 
ATOM     14  C   UNK     1     -10.380  16.577   2.976  0.00  0.00    +0.000 A 
ATOM     16  C   UNK     1     -11.562  16.059   2.599  0.00  0.00    +0.000 A 
ATOM     21  C   UNK     1      -9.670  17.338   2.134  0.00  0.00    +0.000 A 
ATOM     22  C   UNK     1     -11.350  17.021   0.555  0.00  0.00    +0.000 A 
BRANCH  21   1
ATOM      1  C   UNK     1      -8.510  17.846   2.491  0.00  0.00    +0.000 C 
ATOM     15  N   UNK     1      -7.487  18.292   2.804  0.00  0.00    +0.000 NA
ENDBRANCH  21   1
ENDBRANCH  18   8
BRANCH  11   5
ATOM      5  O   UNK     1     -17.292  13.364  -0.953  0.00  0.00    +0.000 OA
ATOM      9  H   UNK     1     -16.831  12.779  -0.330  0.00  0.00    +0.000 HD
ENDBRANCH  11   5
BRANCH  20  10
ATOM     10  O   UNK     1     -12.844  13.471   1.314  0.00  0.00    +0.000 OA
ATOM     12  H   UNK     1     -12.834  12.735   0.684  0.00  0.00    +0.000 HD
ENDBRANCH  20  10
TORSDOF 4
ENDMDL
MODEL 5
REMARK VINA RESULT:      -6.7      4.734      7.249
REMARK  Name = C:\Users\hp\OneDrive\Bureau\molecule article\SERIE MRZK\SERIE 4 A\DOC.9C8Q\lig7.pdb
REMARK  4 active torsions:
REMARK  status: ('A' for Active; 'I' for Inactive)
REMARK    1  A    between atoms: C_1  and  C_28
REMARK    2  A    between atoms: O_7  and  C_13
REMARK    3  A    between atoms: C_10  and  C_25
REMARK    4  A    between atoms: O_12  and  C_27
REMARK                            x       y       z     vdW  Elec       q    Type
REMARK                         _______ _______ _______ _____ _____    ______ ____
ROOT
ATOM      2  C   UNK     1     -14.897  15.687  -0.025  0.00  0.00    +0.000 A 
ATOM      3  C   UNK     1     -17.292  13.405  -2.399  0.00  0.00    +0.000 A 
ATOM      4  C   UNK     1     -16.346  15.470  -1.829  0.00  0.00    +0.000 A 
ATOM      6  O   UNK     1     -16.257  16.795  -2.113  0.00  0.00    +0.000 OA
ATOM      7  C   UNK     1     -16.643  12.847  -1.371  0.00  0.00    +0.000 A 
ATOM     11  C   UNK     1     -15.846  13.565  -0.561  0.00  0.00    +0.000 A 
ATOM     17  C   UNK     1     -17.136  14.715  -2.614  0.00  0.00    +0.000 A 
ATOM     18  C   UNK     1     -15.374  17.562  -1.406  0.00  0.00    +0.000 A 
ATOM     19  O   UNK     1     -14.300  15.261   0.947  0.00  0.00    +0.000 OA
ATOM     20  C   UNK     1     -14.747  17.012  -0.341  0.00  0.00    +0.000 A 
ATOM     23  C   UNK     1     -15.696  14.892  -0.800  0.00  0.00    +0.000 A 
ENDROOT
BRANCH  18   8
ATOM      8  C   UNK     1     -15.230  18.855  -1.817  0.00  0.00    +0.000 A 
ATOM     13  C   UNK     1     -13.853  20.437  -2.934  0.00  0.00    +0.000 A 
ATOM     14  C   UNK     1     -15.850  21.134  -2.044  0.00  0.00    +0.000 A 
ATOM     16  C   UNK     1     -16.076  19.885  -1.602  0.00  0.00    +0.000 A 
ATOM     21  C   UNK     1     -14.734  21.424  -2.726  0.00  0.00    +0.000 A 
ATOM     22  C   UNK     1     -14.102  19.197  -2.482  0.00  0.00    +0.000 A 
BRANCH  21   1
ATOM      1  C   UNK     1     -14.500  22.644  -3.159  0.00  0.00    +0.000 C 
ATOM     15  N   UNK     1     -14.295  23.719  -3.542  0.00  0.00    +0.000 NA
ENDBRANCH  21   1
ENDBRANCH  18   8
BRANCH  11   5
ATOM      5  O   UNK     1     -15.231  12.888   0.450  0.00  0.00    +0.000 OA
ATOM      9  H   UNK     1     -15.073  13.493   1.193  0.00  0.00    +0.000 HD
ENDBRANCH  11   5
BRANCH  20  10
ATOM     10  O   UNK     1     -13.989  17.724   0.543  0.00  0.00    +0.000 OA
ATOM     12  H   UNK     1     -13.371  17.127   0.990  0.00  0.00    +0.000 HD
ENDBRANCH  20  10
TORSDOF 4
ENDMDL
MODEL 6
REMARK VINA RESULT:      -6.7      4.678      6.428
REMARK  Name = C:\Users\hp\OneDrive\Bureau\molecule article\SERIE MRZK\SERIE 4 A\DOC.9C8Q\lig7.pdb
REMARK  4 active torsions:
REMARK  status: ('A' for Active; 'I' for Inactive)
REMARK    1  A    between atoms: C_1  and  C_28
REMARK    2  A    between atoms: O_7  and  C_13
REMARK    3  A    between atoms: C_10  and  C_25
REMARK    4  A    between atoms: O_12  and  C_27
REMARK                            x       y       z     vdW  Elec       q    Type
REMARK                         _______ _______ _______ _____ _____    ______ ____
ROOT
ATOM      2  C   UNK     1     -15.627  11.764  -2.054  0.00  0.00    +0.000 A 
ATOM      3  C   UNK     1     -11.762  11.242  -0.883  0.00  0.00    +0.000 A 
ATOM      4  C   UNK     1     -13.605  12.626  -1.299  0.00  0.00    +0.000 A 
ATOM      6  O   UNK     1     -14.095  13.893  -1.310  0.00  0.00    +0.000 OA
ATOM      7  C   UNK     1     -12.495  10.188  -1.257  0.00  0.00    +0.000 A 
ATOM     11  C   UNK     1     -13.773  10.317  -1.654  0.00  0.00    +0.000 A 
ATOM     17  C   UNK     1     -12.328  12.453  -0.912  0.00  0.00    +0.000 A 
ATOM     18  C   UNK     1     -15.418  14.086  -1.587  0.00  0.00    +0.000 A 
ATOM     19  O   UNK     1     -16.347  10.861  -2.439  0.00  0.00    +0.000 OA
ATOM     20  C   UNK     1     -16.153  13.029  -2.006  0.00  0.00    +0.000 A 
ATOM     23  C   UNK     1     -14.331  11.553  -1.670  0.00  0.00    +0.000 A 
ENDROOT
BRANCH  18   8
ATOM      8  C   UNK     1     -15.885  15.361  -1.458  0.00  0.00    +0.000 A 
ATOM     13  C   UNK     1     -15.575  17.650  -2.017  0.00  0.00    +0.000 A 
ATOM     14  C   UNK     1     -17.333  17.064  -0.662  0.00  0.00    +0.000 A 
ATOM     16  C   UNK     1     -16.947  15.779  -0.735  0.00  0.00    +0.000 A 
ATOM     21  C   UNK     1     -16.653  18.018  -1.312  0.00  0.00    +0.000 A 
ATOM     22  C   UNK     1     -15.209  16.359  -2.073  0.00  0.00    +0.000 A 
BRANCH  21   1
ATOM      1  C   UNK     1     -17.020  19.280  -1.245  0.00  0.00    +0.000 C 
ATOM     15  N   UNK     1     -17.343  20.392  -1.187  0.00  0.00    +0.000 NA
ENDBRANCH  21   1
ENDBRANCH  18   8
BRANCH  11   5
ATOM      5  O   UNK     1     -14.423   9.172  -2.007  0.00  0.00    +0.000 OA
ATOM      9  H   UNK     1     -13.923   8.405  -1.684  0.00  0.00    +0.000 HD
ENDBRANCH  11   5
BRANCH  20  10
ATOM     10  O   UNK     1     -17.427  13.133  -2.483  0.00  0.00    +0.000 OA
ATOM     12  H   UNK     1     -17.713  14.057  -2.436  0.00  0.00    +0.000 HD
ENDBRANCH  20  10
TORSDOF 4
ENDMDL
MODEL 7
REMARK VINA RESULT:      -6.7      3.896      7.075
REMARK  Name = C:\Users\hp\OneDrive\Bureau\molecule article\SERIE MRZK\SERIE 4 A\DOC.9C8Q\lig7.pdb
REMARK  4 active torsions:
REMARK  status: ('A' for Active; 'I' for Inactive)
REMARK    1  A    between atoms: C_1  and  C_28
REMARK    2  A    between atoms: O_7  and  C_13
REMARK    3  A    between atoms: C_10  and  C_25
REMARK    4  A    between atoms: O_12  and  C_27
REMARK                            x       y       z     vdW  Elec       q    Type
REMARK                         _______ _______ _______ _____ _____    ______ ____
ROOT
ATOM      2  C   UNK     1     -14.837  12.077  -1.044  0.00  0.00    +0.000 A 
ATOM      3  C   UNK     1     -12.294   9.523  -2.938  0.00  0.00    +0.000 A 
ATOM      4  C   UNK     1     -12.686  11.313  -1.480  0.00  0.00    +0.000 A 
ATOM      6  O   UNK     1     -12.142  12.253  -0.663  0.00  0.00    +0.000 OA
ATOM      7  C   UNK     1     -13.612   9.431  -3.147  0.00  0.00    +0.000 A 
ATOM     11  C   UNK     1     -14.485  10.257  -2.544  0.00  0.00    +0.000 A 
ATOM     17  C   UNK     1     -11.846  10.469  -2.106  0.00  0.00    +0.000 A 
ATOM     18  C   UNK     1     -12.975  13.047   0.073  0.00  0.00    +0.000 A 
ATOM     19  O   UNK     1     -16.043  12.079  -1.206  0.00  0.00    +0.000 OA
ATOM     20  C   UNK     1     -14.306  12.986  -0.165  0.00  0.00    +0.000 A 
ATOM     23  C   UNK     1     -14.011  11.206  -1.699  0.00  0.00    +0.000 A 
ENDROOT
BRANCH  18   8
ATOM      8  C   UNK     1     -12.379  13.882   0.972  0.00  0.00    +0.000 A 
ATOM     13  C   UNK     1     -12.292  14.629   3.226  0.00  0.00    +0.000 A 
ATOM     14  C   UNK     1     -10.886  15.583   1.683  0.00  0.00    +0.000 A 
ATOM     16  C   UNK     1     -11.415  14.797   0.731  0.00  0.00    +0.000 A 
ATOM     21  C   UNK     1     -11.314  15.502   2.950  0.00  0.00    +0.000 A 
ATOM     22  C   UNK     1     -12.805  13.855   2.256  0.00  0.00    +0.000 A 
BRANCH  21   1
ATOM      1  C   UNK     1     -10.807  16.270   3.890  0.00  0.00    +0.000 C 
ATOM     15  N   UNK     1     -10.359  16.946   4.719  0.00  0.00    +0.000 NA
ENDBRANCH  21   1
ENDBRANCH  18   8
BRANCH  11   5
ATOM      5  O   UNK     1     -15.804  10.066  -2.828  0.00  0.00    +0.000 OA
ATOM      9  H   UNK     1     -15.962  10.253  -3.768  0.00  0.00    +0.000 HD
ENDBRANCH  11   5
BRANCH  20  10
ATOM     10  O   UNK     1     -15.212  13.853   0.372  0.00  0.00    +0.000 OA
ATOM     12  H   UNK     1     -15.041  14.746   0.038  0.00  0.00    +0.000 HD
ENDBRANCH  20  10
TORSDOF 4
ENDMDL
MODEL 8
REMARK VINA RESULT:      -6.6      4.720      6.899
REMARK  Name = C:\Users\hp\OneDrive\Bureau\molecule article\SERIE MRZK\SERIE 4 A\DOC.9C8Q\lig7.pdb
REMARK  4 active torsions:
REMARK  status: ('A' for Active; 'I' for Inactive)
REMARK    1  A    between atoms: C_1  and  C_28
REMARK    2  A    between atoms: O_7  and  C_13
REMARK    3  A    between atoms: C_10  and  C_25
REMARK    4  A    between atoms: O_12  and  C_27
REMARK                            x       y       z     vdW  Elec       q    Type
REMARK                         _______ _______ _______ _____ _____    ______ ____
ROOT
ATOM      2  C   UNK     1     -16.424  12.699  -2.017  0.00  0.00    +0.000 A 
ATOM      3  C   UNK     1     -15.240  16.436  -0.914  0.00  0.00    +0.000 A 
ATOM      4  C   UNK     1     -14.781  14.169  -1.280  0.00  0.00    +0.000 A 
ATOM      6  O   UNK     1     -13.854  13.176  -1.239  0.00  0.00    +0.000 OA
ATOM      7  C   UNK     1     -16.508  16.217  -1.281  0.00  0.00    +0.000 A 
ATOM     11  C   UNK     1     -16.940  14.998  -1.648  0.00  0.00    +0.000 A 
ATOM     17  C   UNK     1     -14.391  15.403  -0.916  0.00  0.00    +0.000 A 
ATOM     18  C   UNK     1     -14.192  11.940  -1.712  0.00  0.00    +0.000 A 
ATOM     19  O   UNK     1     -17.565  12.413  -2.331  0.00  0.00    +0.000 OA
ATOM     20  C   UNK     1     -15.482  11.703  -2.044  0.00  0.00    +0.000 A 
ATOM     23  C   UNK     1     -16.061  13.965  -1.650  0.00  0.00    +0.000 A 
ENDROOT
BRANCH  18   8
ATOM      8  C   UNK     1     -13.188  11.017  -1.768  0.00  0.00    +0.000 A 
ATOM     13  C   UNK     1     -11.381  10.131  -3.032  0.00  0.00    +0.000 A 
ATOM     14  C   UNK     1     -11.883   9.191  -0.999  0.00  0.00    +0.000 A 
ATOM     16  C   UNK     1     -12.895  10.064  -0.857  0.00  0.00    +0.000 A 
ATOM     21  C   UNK     1     -11.105   9.220  -2.089  0.00  0.00    +0.000 A 
ATOM     22  C   UNK     1     -12.399  10.992  -2.867  0.00  0.00    +0.000 A 
BRANCH  21   1
ATOM      1  C   UNK     1     -10.115   8.368  -2.241  0.00  0.00    +0.000 C 
ATOM     15  N   UNK     1      -9.241   7.618  -2.375  0.00  0.00    +0.000 NA
ENDBRANCH  21   1
ENDBRANCH  18   8
BRANCH  11   5
ATOM      5  O   UNK     1     -18.251  14.897  -2.007  0.00  0.00    +0.000 OA
ATOM      9  H   UNK     1     -18.811  15.204  -1.276  0.00  0.00    +0.000 HD
ENDBRANCH  11   5
BRANCH  20  10
ATOM     10  O   UNK     1     -15.971  10.468  -2.352  0.00  0.00    +0.000 OA
ATOM     12  H   UNK     1     -15.558   9.806  -1.779  0.00  0.00    +0.000 HD
ENDBRANCH  20  10
TORSDOF 4
ENDMDL
MODEL 9
REMARK VINA RESULT:      -6.4      4.399      6.138
REMARK  Name = C:\Users\hp\OneDrive\Bureau\molecule article\SERIE MRZK\SERIE 4 A\DOC.9C8Q\lig7.pdb
REMARK  4 active torsions:
REMARK  status: ('A' for Active; 'I' for Inactive)
REMARK    1  A    between atoms: C_1  and  C_28
REMARK    2  A    between atoms: O_7  and  C_13
REMARK    3  A    between atoms: C_10  and  C_25
REMARK    4  A    between atoms: O_12  and  C_27
REMARK                            x       y       z     vdW  Elec       q    Type
REMARK                         _______ _______ _______ _____ _____    ______ ____
ROOT
ATOM      2  C   UNK     1     -16.825  17.241  -0.778  0.00  0.00    +0.000 A 
ATOM      3  C   UNK     1     -15.375  20.825  -2.055  0.00  0.00    +0.000 A 
ATOM      4  C   UNK     1     -15.056  18.580  -1.470  0.00  0.00    +0.000 A 
ATOM      6  O   UNK     1     -14.171  17.560  -1.320  0.00  0.00    +0.000 OA
ATOM      7  C   UNK     1     -16.677  20.690  -1.781  0.00  0.00    +0.000 A 
ATOM     11  C   UNK     1     -17.196  19.525  -1.353  0.00  0.00    +0.000 A 
ATOM     17  C   UNK     1     -14.578  19.765  -1.892  0.00  0.00    +0.000 A 
ATOM     18  C   UNK     1     -14.645  16.318  -1.005  0.00  0.00    +0.000 A 
ATOM     19  O   UNK     1     -17.988  17.047  -0.478  0.00  0.00    +0.000 OA
ATOM     20  C   UNK     1     -15.953  16.186  -0.687  0.00  0.00    +0.000 A 
ATOM     23  C   UNK     1     -16.371  18.459  -1.201  0.00  0.00    +0.000 A 
ENDROOT
BRANCH  18   8
ATOM      8  C   UNK     1     -13.730  15.305  -0.994  0.00  0.00    +0.000 A 
ATOM     13  C   UNK     1     -11.979  14.231   0.199  0.00  0.00    +0.000 A 
ATOM     14  C   UNK     1     -12.566  13.434  -1.872  0.00  0.00    +0.000 A 
ATOM     16  C   UNK     1     -13.495  14.400  -1.969  0.00  0.00    +0.000 A 
ATOM     21  C   UNK     1     -11.799  13.333  -0.778  0.00  0.00    +0.000 A 
ATOM     22  C   UNK     1     -12.914  15.187   0.079  0.00  0.00    +0.000 A 
BRANCH  21   1
ATOM      1  C   UNK     1     -10.883  12.394  -0.675  0.00  0.00    +0.000 C 
ATOM     15  N   UNK     1     -10.077  11.566  -0.584  0.00  0.00    +0.000 NA
ENDBRANCH  21   1
ENDBRANCH  18   8
BRANCH  11   5
ATOM      5  O   UNK     1     -18.537  19.504  -1.111  0.00  0.00    +0.000 OA
ATOM      9  H   UNK     1     -18.988  20.082  -1.748  0.00  0.00    +0.000 HD
ENDBRANCH  11   5
BRANCH  20  10
ATOM     10  O   UNK     1     -16.499  15.041  -0.183  0.00  0.00    +0.000 OA
ATOM     12  H   UNK     1     -16.216  14.287  -0.720  0.00  0.00    +0.000 HD
ENDBRANCH  20  10
TORSDOF 4
ENDMDL
MODEL 10
REMARK VINA RESULT:      -6.4      3.849      5.045
REMARK  Name = C:\Users\hp\OneDrive\Bureau\molecule article\SERIE MRZK\SERIE 4 A\DOC.9C8Q\lig7.pdb
REMARK  4 active torsions:
REMARK  status: ('A' for Active; 'I' for Inactive)
REMARK    1  A    between atoms: C_1  and  C_28
REMARK    2  A    between atoms: O_7  and  C_13
REMARK    3  A    between atoms: C_10  and  C_25
REMARK    4  A    between atoms: O_12  and  C_27
REMARK                            x       y       z     vdW  Elec       q    Type
REMARK                         _______ _______ _______ _____ _____    ______ ____
ROOT
ATOM      2  C   UNK     1     -14.807  20.156  -1.301  0.00  0.00    +0.000 A 
ATOM      3  C   UNK     1     -11.056  19.188  -0.048  0.00  0.00    +0.000 A 
ATOM      4  C   UNK     1     -13.220  18.570  -0.693  0.00  0.00    +0.000 A 
ATOM      6  O   UNK     1     -14.100  17.554  -0.891  0.00  0.00    +0.000 OA
ATOM      7  C   UNK     1     -11.389  20.470  -0.231  0.00  0.00    +0.000 A 
ATOM     11  C   UNK     1     -12.618  20.832  -0.641  0.00  0.00    +0.000 A 
ATOM     17  C   UNK     1     -11.981  18.251  -0.279  0.00  0.00    +0.000 A 
ATOM     18  C   UNK     1     -15.327  17.838  -1.420  0.00  0.00    +0.000 A 
ATOM     19  O   UNK     1     -15.197  21.298  -1.459  0.00  0.00    +0.000 OA
ATOM     20  C   UNK     1     -15.683  19.135  -1.568  0.00  0.00    +0.000 A 
ATOM     23  C   UNK     1     -13.540  19.866  -0.876  0.00  0.00    +0.000 A 
ENDROOT
BRANCH  18   8
ATOM      8  C   UNK     1     -16.121  16.769  -1.719  0.00  0.00    +0.000 A 
ATOM     13  C   UNK     1     -17.974  15.434  -1.063  0.00  0.00    +0.000 A 
ATOM     14  C   UNK     1     -16.832  14.888  -2.977  0.00  0.00    +0.000 A 
ATOM     16  C   UNK     1     -16.001  15.922  -2.763  0.00  0.00    +0.000 A 
ATOM     21  C   UNK     1     -17.838  14.636  -2.130  0.00  0.00    +0.000 A 
ATOM     22  C   UNK     1     -17.130  16.461  -0.871  0.00  0.00    +0.000 A 
BRANCH  21   1
ATOM      1  C   UNK     1     -18.655  13.624  -2.326  0.00  0.00    +0.000 C 
ATOM     15  N   UNK     1     -19.376  12.733  -2.501  0.00  0.00    +0.000 NA
ENDBRANCH  21   1
ENDBRANCH  18   8
BRANCH  11   5
ATOM      5  O   UNK     1     -12.841  22.167  -0.799  0.00  0.00    +0.000 OA
ATOM      9  H   UNK     1     -12.903  22.590   0.073  0.00  0.00    +0.000 HD
ENDBRANCH  11   5
BRANCH  20  10
ATOM     10  O   UNK     1     -16.940  19.542  -1.912  0.00  0.00    +0.000 OA
ATOM     12  H   UNK     1     -16.891  20.410  -2.339  0.00  0.00    +0.000 HD
ENDBRANCH  20  10
TORSDOF 4
ENDMDL
