MODEL 1
REMARK VINA RESULT:      -8.1      0.000      0.000
REMARK  Name = C:\Users\hp\OneDrive\Bureau\molecule article\SERIE MRZK\SERIE 4 A\DOC.9C8Q\lig6.pdb
REMARK  4 active torsions:
REMARK  status: ('A' for Active; 'I' for Inactive)
REMARK    1  A    between atoms: N_1  and  C_18
REMARK    2  A    between atoms: C_3  and  O_19
REMARK    3  A    between atoms: O_5  and  C_25
REMARK    4  A    between atoms: C_16  and  C_31
REMARK                            x       y       z     vdW  Elec       q    Type
REMARK                         _______ _______ _______ _____ _____    ______ ____
ROOT
ATOM      3  C   UNK     1      -9.749  17.000   3.000  0.00  0.00    +0.000 A 
ATOM      4  C   UNK     1     -11.515  15.400   3.099  0.00  0.00    +0.000 A 
ATOM      7  C   UNK     1     -10.643  16.179   2.392  0.00  0.00    +0.000 A 
ATOM      8  C   UNK     1      -8.961  17.687   0.902  0.00  0.00    +0.000 A 
ATOM     11  C   UNK     1      -9.844  16.869   0.322  0.00  0.00    +0.000 A 
ATOM     12  C   UNK     1      -8.925  17.740   2.238  0.00  0.00    +0.000 A 
ATOM     13  C   UNK     1     -12.487  14.607   1.080  0.00  0.00    +0.000 A 
ATOM     18  O   UNK     1     -11.518  15.372   4.316  0.00  0.00    +0.000 OA
ATOM     21  C   UNK     1     -12.429  14.624   2.432  0.00  0.00    +0.000 A 
ATOM     22  O   UNK     1     -11.542  15.299   0.375  0.00  0.00    +0.000 OA
ATOM     23  C   UNK     1     -10.689  16.113   1.047  0.00  0.00    +0.000 A 
ENDROOT
BRANCH  13  24
ATOM      9  C   UNK     1     -15.548  13.370  -0.496  0.00  0.00    +0.000 A 
ATOM     14  C   UNK     1     -13.761  12.154  -1.215  0.00  0.00    +0.000 A 
ATOM     15  C   UNK     1     -15.088  12.359  -1.256  0.00  0.00    +0.000 A 
ATOM     17  C   UNK     1     -12.956  12.907  -0.449  0.00  0.00    +0.000 A 
ATOM     20  C   UNK     1     -14.728  14.114   0.264  0.00  0.00    +0.000 A 
ATOM     24  C   UNK     1     -13.397  13.909   0.345  0.00  0.00    +0.000 A 
BRANCH  15   1
ATOM      1  N   UNK     1     -15.850  11.658  -1.971  0.00  0.00    +0.000 N 
ATOM      2  O   UNK     1     -15.543  10.441  -2.357  0.00  0.00    +0.000 OA
ATOM     19  O   UNK     1     -17.021  12.081  -2.392  0.00  0.00    +0.000 OA
ENDBRANCH  15   1
ENDBRANCH  13  24
BRANCH  21   5
ATOM      5  O   UNK     1     -13.199  13.837   3.235  0.00  0.00    +0.000 OA
ATOM     10  H   UNK     1     -12.759  13.702   4.087  0.00  0.00    +0.000 HD
ENDBRANCH  21   5
BRANCH   3  16
ATOM      6  H   UNK     1      -8.687  17.041   4.596  0.00  0.00    +0.000 HD
ATOM     16  O   UNK     1      -9.621  17.140   4.351  0.00  0.00    +0.000 OA
ENDBRANCH   3  16
TORSDOF 4
ENDMDL
MODEL 2
REMARK VINA RESULT:      -8.0      2.618      7.431
REMARK  Name = C:\Users\hp\OneDrive\Bureau\molecule article\SERIE MRZK\SERIE 4 A\DOC.9C8Q\lig6.pdb
REMARK  4 active torsions:
REMARK  status: ('A' for Active; 'I' for Inactive)
REMARK    1  A    between atoms: N_1  and  C_18
REMARK    2  A    between atoms: C_3  and  O_19
REMARK    3  A    between atoms: O_5  and  C_25
REMARK    4  A    between atoms: C_16  and  C_31
REMARK                            x       y       z     vdW  Elec       q    Type
REMARK                         _______ _______ _______ _____ _____    ______ ____
ROOT
ATOM      3  C   UNK     1     -17.060  12.459  -1.982  0.00  0.00    +0.000 A 
ATOM      4  C   UNK     1     -14.797  12.461  -1.227  0.00  0.00    +0.000 A 
ATOM      7  C   UNK     1     -16.081  12.926  -1.167  0.00  0.00    +0.000 A 
ATOM      8  C   UNK     1     -18.592  13.916  -0.971  0.00  0.00    +0.000 A 
ATOM     11  C   UNK     1     -17.617  14.359  -0.171  0.00  0.00    +0.000 A 
ATOM     12  C   UNK     1     -18.299  12.968  -1.867  0.00  0.00    +0.000 A 
ATOM     13  C   UNK     1     -14.134  13.991   0.467  0.00  0.00    +0.000 A 
ATOM     18  O   UNK     1     -14.465  11.577  -1.995  0.00  0.00    +0.000 OA
ATOM     21  C   UNK     1     -13.838  13.003  -0.410  0.00  0.00    +0.000 A 
ATOM     22  O   UNK     1     -15.438  14.375   0.605  0.00  0.00    +0.000 OA
ATOM     23  C   UNK     1     -16.362  13.879  -0.256  0.00  0.00    +0.000 A 
ENDROOT
BRANCH  13  24
ATOM      9  C   UNK     1     -11.725  16.332   1.915  0.00  0.00    +0.000 A 
ATOM     14  C   UNK     1     -12.056  14.585   3.337  0.00  0.00    +0.000 A 
ATOM     15  C   UNK     1     -11.418  15.740   3.083  0.00  0.00    +0.000 A 
ATOM     17  C   UNK     1     -12.930  14.056   2.465  0.00  0.00    +0.000 A 
ATOM     20  C   UNK     1     -12.601  15.790   1.053  0.00  0.00    +0.000 A 
ATOM     24  C   UNK     1     -13.231  14.617   1.271  0.00  0.00    +0.000 A 
BRANCH  15   1
ATOM      1  N   UNK     1     -10.599  16.242   3.894  0.00  0.00    +0.000 N 
ATOM      2  O   UNK     1      -9.709  17.141   3.541  0.00  0.00    +0.000 OA
ATOM     19  O   UNK     1     -10.562  15.914   5.166  0.00  0.00    +0.000 OA
ENDBRANCH  15   1
ENDBRANCH  13  24
BRANCH  21   5
ATOM      5  O   UNK     1     -12.612  12.415  -0.507  0.00  0.00    +0.000 OA
ATOM     10  H   UNK     1     -11.931  13.008  -0.157  0.00  0.00    +0.000 HD
ENDBRANCH  21   5
BRANCH   3  16
ATOM      6  H   UNK     1     -16.191  11.785  -3.553  0.00  0.00    +0.000 HD
ATOM     16  O   UNK     1     -16.881  11.498  -2.934  0.00  0.00    +0.000 OA
ENDBRANCH   3  16
TORSDOF 4
ENDMDL
MODEL 3
REMARK VINA RESULT:      -7.7      2.593      7.157
REMARK  Name = C:\Users\hp\OneDrive\Bureau\molecule article\SERIE MRZK\SERIE 4 A\DOC.9C8Q\lig6.pdb
REMARK  4 active torsions:
REMARK  status: ('A' for Active; 'I' for Inactive)
REMARK    1  A    between atoms: N_1  and  C_18
REMARK    2  A    between atoms: C_3  and  O_19
REMARK    3  A    between atoms: O_5  and  C_25
REMARK    4  A    between atoms: C_16  and  C_31
REMARK                            x       y       z     vdW  Elec       q    Type
REMARK                         _______ _______ _______ _____ _____    ______ ____
ROOT
ATOM      3  C   UNK     1     -14.637  10.583  -2.234  0.00  0.00    +0.000 A 
ATOM      4  C   UNK     1     -14.897  12.428  -0.745  0.00  0.00    +0.000 A 
ATOM      7  C   UNK     1     -14.113  11.551  -1.440  0.00  0.00    +0.000 A 
ATOM      8  C   UNK     1     -12.474   9.859  -2.771  0.00  0.00    +0.000 A 
ATOM     11  C   UNK     1     -11.975  10.822  -1.990  0.00  0.00    +0.000 A 
ATOM     12  C   UNK     1     -13.802   9.753  -2.883  0.00  0.00    +0.000 A 
ATOM     13  C   UNK     1     -12.969  13.431   0.219  0.00  0.00    +0.000 A 
ATOM     18  O   UNK     1     -16.111  12.413  -0.824  0.00  0.00    +0.000 OA
ATOM     21  C   UNK     1     -14.314  13.357   0.080  0.00  0.00    +0.000 A 
ATOM     22  O   UNK     1     -12.184  12.629  -0.561  0.00  0.00    +0.000 OA
ATOM     23  C   UNK     1     -12.776  11.671  -1.319  0.00  0.00    +0.000 A 
ENDROOT
BRANCH  13  24
ATOM      9  C   UNK     1     -11.291  16.322   1.704  0.00  0.00    +0.000 A 
ATOM     14  C   UNK     1     -11.404  14.629   3.223  0.00  0.00    +0.000 A 
ATOM     15  C   UNK     1     -11.001  15.879   2.941  0.00  0.00    +0.000 A 
ATOM     17  C   UNK     1     -12.042  13.873   2.314  0.00  0.00    +0.000 A 
ATOM     20  C   UNK     1     -11.929  15.553   0.807  0.00  0.00    +0.000 A 
ATOM     24  C   UNK     1     -12.317  14.285   1.056  0.00  0.00    +0.000 A 
BRANCH  15   1
ATOM      1  N   UNK     1     -10.404  16.595   3.786  0.00  0.00    +0.000 N 
ATOM      2  O   UNK     1      -9.375  17.351   3.477  0.00  0.00    +0.000 OA
ATOM     19  O   UNK     1     -10.758  16.652   5.050  0.00  0.00    +0.000 OA
ENDBRANCH  15   1
ENDBRANCH  13  24
BRANCH  21   5
ATOM      5  O   UNK     1     -15.187  14.223   0.667  0.00  0.00    +0.000 OA
ATOM     10  H   UNK     1     -15.832  13.733   1.198  0.00  0.00    +0.000 HD
ENDBRANCH  21   5
BRANCH   3  16
ATOM      6  H   UNK     1     -16.219   9.515  -2.054  0.00  0.00    +0.000 HD
ATOM     16  O   UNK     1     -15.972  10.377  -2.424  0.00  0.00    +0.000 OA
ENDBRANCH   3  16
TORSDOF 4
ENDMDL
MODEL 4
REMARK VINA RESULT:      -7.5      2.916      7.409
REMARK  Name = C:\Users\hp\OneDrive\Bureau\molecule article\SERIE MRZK\SERIE 4 A\DOC.9C8Q\lig6.pdb
REMARK  4 active torsions:
REMARK  status: ('A' for Active; 'I' for Inactive)
REMARK    1  A    between atoms: N_1  and  C_18
REMARK    2  A    between atoms: C_3  and  O_19
REMARK    3  A    between atoms: O_5  and  C_25
REMARK    4  A    between atoms: C_16  and  C_31
REMARK                            x       y       z     vdW  Elec       q    Type
REMARK                         _______ _______ _______ _____ _____    ______ ____
ROOT
ATOM      3  C   UNK     1     -17.326  13.927  -2.462  0.00  0.00    +0.000 A 
ATOM      4  C   UNK     1     -16.262  15.676  -1.238  0.00  0.00    +0.000 A 
ATOM      7  C   UNK     1     -16.329  14.378  -1.659  0.00  0.00    +0.000 A 
ATOM      8  C   UNK     1     -16.376  11.785  -2.431  0.00  0.00    +0.000 A 
ATOM     11  C   UNK     1     -15.399  12.248  -1.645  0.00  0.00    +0.000 A 
ATOM     12  C   UNK     1     -17.328  12.634  -2.831  0.00  0.00    +0.000 A 
ATOM     13  C   UNK     1     -14.321  15.190   0.044  0.00  0.00    +0.000 A 
ATOM     18  O   UNK     1     -17.074  16.512  -1.588  0.00  0.00    +0.000 OA
ATOM     21  C   UNK     1     -15.258  16.065  -0.388  0.00  0.00    +0.000 A 
ATOM     22  O   UNK     1     -14.324  13.921  -0.465  0.00  0.00    +0.000 OA
ATOM     23  C   UNK     1     -15.361  13.534  -1.250  0.00  0.00    +0.000 A 
ENDROOT
BRANCH  13  24
ATOM      9  C   UNK     1     -12.027  15.217   2.894  0.00  0.00    +0.000 A 
ATOM     14  C   UNK     1     -11.459  16.865   1.428  0.00  0.00    +0.000 A 
ATOM     15  C   UNK     1     -11.209  16.242   2.592  0.00  0.00    +0.000 A 
ATOM     17  C   UNK     1     -12.473  16.489   0.632  0.00  0.00    +0.000 A 
ATOM     20  C   UNK     1     -13.037  14.855   2.087  0.00  0.00    +0.000 A 
ATOM     24  C   UNK     1     -13.327  15.483   0.929  0.00  0.00    +0.000 A 
BRANCH  15   1
ATOM      1  N   UNK     1     -10.261  16.587   3.344  0.00  0.00    +0.000 N 
ATOM      2  O   UNK     1      -9.151  17.121   2.888  0.00  0.00    +0.000 OA
ATOM     19  O   UNK     1     -10.298  16.445   4.649  0.00  0.00    +0.000 OA
ENDBRANCH  15   1
ENDBRANCH  13  24
BRANCH  21   5
ATOM      5  O   UNK     1     -15.249  17.396  -0.092  0.00  0.00    +0.000 OA
ATOM     10  H   UNK     1     -15.836  17.874  -0.696  0.00  0.00    +0.000 HD
ENDBRANCH  21   5
BRANCH   3  16
ATOM      6  H   UNK     1     -18.938  14.930  -2.194  0.00  0.00    +0.000 HD
ATOM     16  O   UNK     1     -18.350  14.697  -2.930  0.00  0.00    +0.000 OA
ENDBRANCH   3  16
TORSDOF 4
ENDMDL
MODEL 5
REMARK VINA RESULT:      -7.0      3.176      7.093
REMARK  Name = C:\Users\hp\OneDrive\Bureau\molecule article\SERIE MRZK\SERIE 4 A\DOC.9C8Q\lig6.pdb
REMARK  4 active torsions:
REMARK  status: ('A' for Active; 'I' for Inactive)
REMARK    1  A    between atoms: N_1  and  C_18
REMARK    2  A    between atoms: C_3  and  O_19
REMARK    3  A    between atoms: O_5  and  C_25
REMARK    4  A    between atoms: C_16  and  C_31
REMARK                            x       y       z     vdW  Elec       q    Type
REMARK                         _______ _______ _______ _____ _____    ______ ____
ROOT
ATOM      3  C   UNK     1     -16.762  14.838  -0.572  0.00  0.00    +0.000 A 
ATOM      4  C   UNK     1     -14.680  14.215   0.412  0.00  0.00    +0.000 A 
ATOM      7  C   UNK     1     -15.544  15.160  -0.066  0.00  0.00    +0.000 A 
ATOM      8  C   UNK     1     -17.180  17.105  -0.994  0.00  0.00    +0.000 A 
ATOM     11  C   UNK     1     -15.980  17.404  -0.486  0.00  0.00    +0.000 A 
ATOM     12  C   UNK     1     -17.556  15.823  -1.028  0.00  0.00    +0.000 A 
ATOM     13  C   UNK     1     -13.054  15.890   0.862  0.00  0.00    +0.000 A 
ATOM     18  O   UNK     1     -14.966  13.033   0.442  0.00  0.00    +0.000 OA
ATOM     21  C   UNK     1     -13.443  14.594   0.868  0.00  0.00    +0.000 A 
ATOM     22  O   UNK     1     -13.960  16.844   0.490  0.00  0.00    +0.000 OA
ATOM     23  C   UNK     1     -15.153  16.449  -0.022  0.00  0.00    +0.000 A 
ENDROOT
BRANCH  13  24
ATOM      9  C   UNK     1     -10.083  16.843   2.773  0.00  0.00    +0.000 A 
ATOM     14  C   UNK     1      -9.733  17.226   0.555  0.00  0.00    +0.000 A 
ATOM     15  C   UNK     1      -9.256  17.287   1.810  0.00  0.00    +0.000 A 
ATOM     17  C   UNK     1     -10.966  16.763   0.293  0.00  0.00    +0.000 A 
ATOM     20  C   UNK     1     -11.314  16.383   2.493  0.00  0.00    +0.000 A 
ATOM     24  C   UNK     1     -11.827  16.340   1.246  0.00  0.00    +0.000 A 
BRANCH  15   1
ATOM      1  N   UNK     1      -8.102  17.719   2.064  0.00  0.00    +0.000 N 
ATOM      2  O   UNK     1      -7.847  18.510   3.081  0.00  0.00    +0.000 OA
ATOM     19  O   UNK     1      -7.050  17.414   1.338  0.00  0.00    +0.000 OA
ENDBRANCH  15   1
ENDBRANCH  13  24
BRANCH  21   5
ATOM      5  O   UNK     1     -12.694  13.579   1.386  0.00  0.00    +0.000 OA
ATOM     10  H   UNK     1     -12.255  13.871   2.198  0.00  0.00    +0.000 HD
ENDBRANCH  21   5
BRANCH   3  16
ATOM      6  H   UNK     1     -17.147  13.124   0.196  0.00  0.00    +0.000 HD
ATOM     16  O   UNK     1     -17.251  13.568  -0.661  0.00  0.00    +0.000 OA
ENDBRANCH   3  16
TORSDOF 4
ENDMDL
MODEL 6
REMARK VINA RESULT:      -7.0      4.425      5.141
REMARK  Name = C:\Users\hp\OneDrive\Bureau\molecule article\SERIE MRZK\SERIE 4 A\DOC.9C8Q\lig6.pdb
REMARK  4 active torsions:
REMARK  status: ('A' for Active; 'I' for Inactive)
REMARK    1  A    between atoms: N_1  and  C_18
REMARK    2  A    between atoms: C_3  and  O_19
REMARK    3  A    between atoms: O_5  and  C_25
REMARK    4  A    between atoms: C_16  and  C_31
REMARK                            x       y       z     vdW  Elec       q    Type
REMARK                         _______ _______ _______ _____ _____    ______ ____
ROOT
ATOM      3  C   UNK     1     -12.936  20.620  -0.735  0.00  0.00    +0.000 A 
ATOM      4  C   UNK     1     -13.406  18.300  -0.433  0.00  0.00    +0.000 A 
ATOM      7  C   UNK     1     -13.721  19.531  -0.937  0.00  0.00    +0.000 A 
ATOM      8  C   UNK     1     -14.436  21.927  -1.973  0.00  0.00    +0.000 A 
ATOM     11  C   UNK     1     -15.194  20.843  -2.167  0.00  0.00    +0.000 A 
ATOM     12  C   UNK     1     -13.314  21.799  -1.258  0.00  0.00    +0.000 A 
ATOM     13  C   UNK     1     -15.416  17.392  -1.320  0.00  0.00    +0.000 A 
ATOM     18  O   UNK     1     -12.385  18.102   0.199  0.00  0.00    +0.000 OA
ATOM     21  C   UNK     1     -14.261  17.246  -0.630  0.00  0.00    +0.000 A 
ATOM     22  O   UNK     1     -15.674  18.595  -1.918  0.00  0.00    +0.000 OA
ATOM     23  C   UNK     1     -14.854  19.644  -1.658  0.00  0.00    +0.000 A 
ENDROOT
BRANCH  13  24
ATOM      9  C   UNK     1     -18.247  15.098  -0.992  0.00  0.00    +0.000 A 
ATOM     14  C   UNK     1     -17.139  14.687  -2.939  0.00  0.00    +0.000 A 
ATOM     15  C   UNK     1     -18.147  14.361  -2.113  0.00  0.00    +0.000 A 
ATOM     17  C   UNK     1     -16.281  15.678  -2.646  0.00  0.00    +0.000 A 
ATOM     20  C   UNK     1     -17.379  16.085  -0.714  0.00  0.00    +0.000 A 
ATOM     24  C   UNK     1     -16.341  16.412  -1.512  0.00  0.00    +0.000 A 
BRANCH  15   1
ATOM      1  N   UNK     1     -18.956  13.436  -2.380  0.00  0.00    +0.000 N 
ATOM      2  O   UNK     1     -19.441  13.240  -3.586  0.00  0.00    +0.000 OA
ATOM     19  O   UNK     1     -19.386  12.582  -1.479  0.00  0.00    +0.000 OA
ENDBRANCH  15   1
ENDBRANCH  13  24
BRANCH  21   5
ATOM      5  O   UNK     1     -13.812  16.054  -0.144  0.00  0.00    +0.000 OA
ATOM     10  H   UNK     1     -12.945  15.848  -0.523  0.00  0.00    +0.000 HD
ENDBRANCH  21   5
BRANCH   3  16
ATOM      6  H   UNK     1     -11.290  21.438  -0.190  0.00  0.00    +0.000 HD
ATOM     16  O   UNK     1     -11.772  20.613  -0.023  0.00  0.00    +0.000 OA
ENDBRANCH   3  16
TORSDOF 4
ENDMDL
MODEL 7
REMARK VINA RESULT:      -6.9      4.116      5.718
REMARK  Name = C:\Users\hp\OneDrive\Bureau\molecule article\SERIE MRZK\SERIE 4 A\DOC.9C8Q\lig6.pdb
REMARK  4 active torsions:
REMARK  status: ('A' for Active; 'I' for Inactive)
REMARK    1  A    between atoms: N_1  and  C_18
REMARK    2  A    between atoms: C_3  and  O_19
REMARK    3  A    between atoms: O_5  and  C_25
REMARK    4  A    between atoms: C_16  and  C_31
REMARK                            x       y       z     vdW  Elec       q    Type
REMARK                         _______ _______ _______ _____ _____    ______ ____
ROOT
ATOM      3  C   UNK     1      -9.648  10.187  -1.725  0.00  0.00    +0.000 A 
ATOM      4  C   UNK     1     -11.180  11.649  -0.627  0.00  0.00    +0.000 A 
ATOM      7  C   UNK     1     -10.900  10.681  -1.550  0.00  0.00    +0.000 A 
ATOM      8  C   UNK     1     -10.449   8.768  -3.410  0.00  0.00    +0.000 A 
ATOM     11  C   UNK     1     -11.676   9.262  -3.220  0.00  0.00    +0.000 A 
ATOM     12  C   UNK     1      -9.449   9.238  -2.657  0.00  0.00    +0.000 A 
ATOM     13  C   UNK     1     -13.453  11.693  -1.320  0.00  0.00    +0.000 A 
ATOM     18  O   UNK     1     -10.328  12.101   0.115  0.00  0.00    +0.000 OA
ATOM     21  C   UNK     1     -12.455  12.145  -0.526  0.00  0.00    +0.000 A 
ATOM     22  O   UNK     1     -13.197  10.648  -2.164  0.00  0.00    +0.000 OA
ATOM     23  C   UNK     1     -11.918  10.215  -2.300  0.00  0.00    +0.000 A 
ENDROOT
BRANCH  13  24
ATOM      9  C   UNK     1     -16.551  13.485  -0.561  0.00  0.00    +0.000 A 
ATOM     14  C   UNK     1     -16.854  12.155  -2.385  0.00  0.00    +0.000 A 
ATOM     15  C   UNK     1     -17.384  13.032  -1.516  0.00  0.00    +0.000 A 
ATOM     17  C   UNK     1     -15.576  11.752  -2.288  0.00  0.00    +0.000 A 
ATOM     20  C   UNK     1     -15.276  13.071  -0.478  0.00  0.00    +0.000 A 
ATOM     24  C   UNK     1     -14.729  12.170  -1.320  0.00  0.00    +0.000 A 
BRANCH  15   1
ATOM      1  N   UNK     1     -18.579  13.416  -1.599  0.00  0.00    +0.000 N 
ATOM      2  O   UNK     1     -19.049  14.432  -0.913  0.00  0.00    +0.000 OA
ATOM     19  O   UNK     1     -19.461  12.836  -2.382  0.00  0.00    +0.000 OA
ENDBRANCH  15   1
ENDBRANCH  13  24
BRANCH  21   5
ATOM      5  O   UNK     1     -12.633  13.054   0.474  0.00  0.00    +0.000 OA
ATOM     10  H   UNK     1     -12.911  12.604   1.285  0.00  0.00    +0.000 HD
ENDBRANCH  21   5
BRANCH   3  16
ATOM      6  H   UNK     1      -8.002   9.817  -0.815  0.00  0.00    +0.000 HD
ATOM     16  O   UNK     1      -8.552  10.589  -1.020  0.00  0.00    +0.000 OA
ENDBRANCH   3  16
TORSDOF 4
ENDMDL
MODEL 8
REMARK VINA RESULT:      -6.8      5.461      7.878
REMARK  Name = C:\Users\hp\OneDrive\Bureau\molecule article\SERIE MRZK\SERIE 4 A\DOC.9C8Q\lig6.pdb
REMARK  4 active torsions:
REMARK  status: ('A' for Active; 'I' for Inactive)
REMARK    1  A    between atoms: N_1  and  C_18
REMARK    2  A    between atoms: C_3  and  O_19
REMARK    3  A    between atoms: O_5  and  C_25
REMARK    4  A    between atoms: C_16  and  C_31
REMARK                            x       y       z     vdW  Elec       q    Type
REMARK                         _______ _______ _______ _____ _____    ______ ____
ROOT
ATOM      3  C   UNK     1     -15.889  13.548  -0.522  0.00  0.00    +0.000 A 
ATOM      4  C   UNK     1     -14.940  15.675  -0.005  0.00  0.00    +0.000 A 
ATOM      7  C   UNK     1     -15.755  14.878  -0.760  0.00  0.00    +0.000 A 
ATOM      8  C   UNK     1     -17.389  13.385  -2.316  0.00  0.00    +0.000 A 
ATOM     11  C   UNK     1     -17.249  14.696  -2.530  0.00  0.00    +0.000 A 
ATOM     12  C   UNK     1     -16.706  12.827  -1.311  0.00  0.00    +0.000 A 
ATOM     13  C   UNK     1     -15.471  17.551  -1.364  0.00  0.00    +0.000 A 
ATOM     18  O   UNK     1     -14.313  15.244   0.945  0.00  0.00    +0.000 OA
ATOM     21  C   UNK     1     -14.807  17.004  -0.320  0.00  0.00    +0.000 A 
ATOM     22  O   UNK     1     -16.370  16.780  -2.047  0.00  0.00    +0.000 OA
ATOM     23  C   UNK     1     -16.440  15.454  -1.767  0.00  0.00    +0.000 A 
ENDROOT
BRANCH  13  24
ATOM      9  C   UNK     1     -16.009  21.110  -2.019  0.00  0.00    +0.000 A 
ATOM     14  C   UNK     1     -13.998  20.462  -2.870  0.00  0.00    +0.000 A 
ATOM     15  C   UNK     1     -14.892  21.449  -2.688  0.00  0.00    +0.000 A 
ATOM     17  C   UNK     1     -14.224  19.216  -2.421  0.00  0.00    +0.000 A 
ATOM     20  C   UNK     1     -16.219  19.859  -1.578  0.00  0.00    +0.000 A 
ATOM     24  C   UNK     1     -15.351  18.845  -1.774  0.00  0.00    +0.000 A 
BRANCH  15   1
ATOM      1  N   UNK     1     -14.688  22.618  -3.104  0.00  0.00    +0.000 N 
ATOM      2  O   UNK     1     -13.626  23.317  -2.772  0.00  0.00    +0.000 OA
ATOM     19  O   UNK     1     -15.518  23.244  -3.908  0.00  0.00    +0.000 OA
ENDBRANCH  15   1
ENDBRANCH  13  24
BRANCH  21   5
ATOM      5  O   UNK     1     -14.026  17.715   0.541  0.00  0.00    +0.000 OA
ATOM     10  H   UNK     1     -13.353  17.138   0.931  0.00  0.00    +0.000 HD
ENDBRANCH  21   5
BRANCH   3  16
ATOM      6  H   UNK     1     -15.790  12.877   1.271  0.00  0.00    +0.000 HD
ATOM     16  O   UNK     1     -15.243  12.870   0.469  0.00  0.00    +0.000 OA
ENDBRANCH   3  16
TORSDOF 4
ENDMDL
MODEL 9
REMARK VINA RESULT:      -6.8      4.559      5.397
REMARK  Name = C:\Users\hp\OneDrive\Bureau\molecule article\SERIE MRZK\SERIE 4 A\DOC.9C8Q\lig6.pdb
REMARK  4 active torsions:
REMARK  status: ('A' for Active; 'I' for Inactive)
REMARK    1  A    between atoms: N_1  and  C_18
REMARK    2  A    between atoms: C_3  and  O_19
REMARK    3  A    between atoms: O_5  and  C_25
REMARK    4  A    between atoms: C_16  and  C_31
REMARK                            x       y       z     vdW  Elec       q    Type
REMARK                         _______ _______ _______ _____ _____    ______ ____
ROOT
ATOM      3  C   UNK     1     -12.591  20.950  -0.817  0.00  0.00    +0.000 A 
ATOM      4  C   UNK     1     -14.825  20.308  -1.356  0.00  0.00    +0.000 A 
ATOM      7  C   UNK     1     -13.560  20.006  -0.935  0.00  0.00    +0.000 A 
ATOM      8  C   UNK     1     -11.084  19.304  -0.099  0.00  0.00    +0.000 A 
ATOM     11  C   UNK     1     -12.052  18.390  -0.216  0.00  0.00    +0.000 A 
ATOM     12  C   UNK     1     -11.368  20.575  -0.401  0.00  0.00    +0.000 A 
ATOM     13  C   UNK     1     -15.443  18.016  -1.233  0.00  0.00    +0.000 A 
ATOM     18  O   UNK     1     -15.165  21.447  -1.617  0.00  0.00    +0.000 OA
ATOM     21  C   UNK     1     -15.751  19.307  -1.502  0.00  0.00    +0.000 A 
ATOM     22  O   UNK     1     -14.214  17.732  -0.706  0.00  0.00    +0.000 OA
ATOM     23  C   UNK     1     -13.288  18.722  -0.632  0.00  0.00    +0.000 A 
ENDROOT
BRANCH  13  24
ATOM      9  C   UNK     1     -18.139  15.564  -0.911  0.00  0.00    +0.000 A 
ATOM     14  C   UNK     1     -16.857  15.071  -2.728  0.00  0.00    +0.000 A 
ATOM     15  C   UNK     1     -17.905  14.745  -1.953  0.00  0.00    +0.000 A 
ATOM     17  C   UNK     1     -16.090  16.141  -2.462  0.00  0.00    +0.000 A 
ATOM     20  C   UNK     1     -17.361  16.630  -0.659  0.00  0.00    +0.000 A 
ATOM     24  C   UNK     1     -16.286  16.960  -1.404  0.00  0.00    +0.000 A 
BRANCH  15   1
ATOM      1  N   UNK     1     -18.629  13.746  -2.195  0.00  0.00    +0.000 N 
ATOM      2  O   UNK     1     -19.010  13.421  -3.410  0.00  0.00    +0.000 OA
ATOM     19  O   UNK     1     -19.067  12.938  -1.257  0.00  0.00    +0.000 OA
ENDBRANCH  15   1
ENDBRANCH  13  24
BRANCH  21   5
ATOM      5  O   UNK     1     -16.995  19.733  -1.858  0.00  0.00    +0.000 OA
ATOM     10  H   UNK     1     -17.583  18.973  -1.984  0.00  0.00    +0.000 HD
ENDBRANCH  21   5
BRANCH   3  16
ATOM      6  H   UNK     1     -12.509  22.440  -2.020  0.00  0.00    +0.000 HD
ATOM     16  O   UNK     1     -12.762  22.273  -1.098  0.00  0.00    +0.000 OA
ENDBRANCH   3  16
TORSDOF 4
ENDMDL
MODEL 10
REMARK VINA RESULT:      -6.8      4.528      6.697
REMARK  Name = C:\Users\hp\OneDrive\Bureau\molecule article\SERIE MRZK\SERIE 4 A\DOC.9C8Q\lig6.pdb
REMARK  4 active torsions:
REMARK  status: ('A' for Active; 'I' for Inactive)
REMARK    1  A    between atoms: N_1  and  C_18
REMARK    2  A    between atoms: C_3  and  O_19
REMARK    3  A    between atoms: O_5  and  C_25
REMARK    4  A    between atoms: C_16  and  C_31
REMARK                            x       y       z     vdW  Elec       q    Type
REMARK                         _______ _______ _______ _____ _____    ______ ____
ROOT
ATOM      3  C   UNK     1     -17.244  14.842  -1.622  0.00  0.00    +0.000 A 
ATOM      4  C   UNK     1     -16.542  12.605  -2.064  0.00  0.00    +0.000 A 
ATOM      7  C   UNK     1     -16.298  13.869  -1.603  0.00  0.00    +0.000 A 
ATOM      8  C   UNK     1     -15.713  16.342  -0.673  0.00  0.00    +0.000 A 
ATOM     11  C   UNK     1     -14.796  15.369  -0.657  0.00  0.00    +0.000 A 
ATOM     12  C   UNK     1     -16.928  16.063  -1.156  0.00  0.00    +0.000 A 
ATOM     13  C   UNK     1     -14.295  11.977  -1.611  0.00  0.00    +0.000 A 
ATOM     18  O   UNK     1     -17.632  12.271  -2.487  0.00  0.00    +0.000 OA
ATOM     21  C   UNK     1     -15.534  11.675  -2.064  0.00  0.00    +0.000 A 
ATOM     22  O   UNK     1     -14.084  13.204  -1.048  0.00  0.00    +0.000 OA
ATOM     23  C   UNK     1     -15.070  14.134  -1.117  0.00  0.00    +0.000 A 
ENDROOT
BRANCH  13  24
ATOM      9  C   UNK     1     -11.971   9.215  -1.010  0.00  0.00    +0.000 A 
ATOM     14  C   UNK     1     -11.108  10.626  -2.575  0.00  0.00    +0.000 A 
ATOM     15  C   UNK     1     -10.954   9.514  -1.837  0.00  0.00    +0.000 A 
ATOM     17  C   UNK     1     -12.207  11.391  -2.474  0.00  0.00    +0.000 A 
ATOM     20  C   UNK     1     -13.064   9.992  -0.920  0.00  0.00    +0.000 A 
ATOM     24  C   UNK     1     -13.229  11.129  -1.628  0.00  0.00    +0.000 A 
BRANCH  15   1
ATOM      1  N   UNK     1      -9.928   8.791  -1.925  0.00  0.00    +0.000 N 
ATOM      2  O   UNK     1      -9.961   7.565  -2.395  0.00  0.00    +0.000 OA
ATOM     19  O   UNK     1      -8.734   9.198  -1.559  0.00  0.00    +0.000 OA
ENDBRANCH  15   1
ENDBRANCH  13  24
BRANCH  21   5
ATOM      5  O   UNK     1     -15.910  10.432  -2.479  0.00  0.00    +0.000 OA
ATOM     10  H   UNK     1     -15.227   9.785  -2.248  0.00  0.00    +0.000 HD
ENDBRANCH  21   5
BRANCH   3  16
ATOM      6  H   UNK     1     -18.550  13.882  -2.646  0.00  0.00    +0.000 HD
ATOM     16  O   UNK     1     -18.514  14.677  -2.091  0.00  0.00    +0.000 OA
ENDBRANCH   3  16
TORSDOF 4
ENDMDL
