MODEL 1
REMARK VINA RESULT:      -7.7      0.000      0.000
REMARK  Name = C:\Users\hp\OneDrive\Bureau\molecule article\SERIE MRZK\SERIE 4 A\DOC.9C8Q\lig4.pdb
REMARK  5 active torsions:
REMARK  status: ('A' for Active; 'I' for Inactive)
REMARK    1  A    between atoms: O_7  and  C_13
REMARK    2  A    between atoms: O_7  and  C_16
REMARK    3  A    between atoms: C_11  and  O_29
REMARK    4  A    between atoms: C_12  and  C_27
REMARK    5  A    between atoms: O_23  and  C_24
REMARK                            x       y       z     vdW  Elec       q    Type
REMARK                         _______ _______ _______ _____ _____    ______ ____
ROOT
ATOM      1  C   UNK     1     -11.867  16.247   1.114  0.00  0.00    +0.000 A 
ATOM      2  O   UNK     1     -12.770  15.981   0.135  0.00  0.00    +0.000 OA
ATOM      3  C   UNK     1     -10.075  17.581   1.817  0.00  0.00    +0.000 A 
ATOM      7  C   UNK     1     -13.643  14.281   1.483  0.00  0.00    +0.000 A 
ATOM      8  C   UNK     1     -13.730  15.036   0.364  0.00  0.00    +0.000 A 
ATOM     10  C   UNK     1     -11.005  17.260   0.911  0.00  0.00    +0.000 A 
ATOM     13  C   UNK     1     -10.010  16.866   2.944  0.00  0.00    +0.000 A 
ATOM     16  C   UNK     1     -10.850  15.843   3.185  0.00  0.00    +0.000 A 
ATOM     17  C   UNK     1     -12.683  14.516   2.434  0.00  0.00    +0.000 A 
ATOM     22  C   UNK     1     -11.791  15.536   2.257  0.00  0.00    +0.000 A 
ATOM     23  O   UNK     1     -12.667  13.798   3.417  0.00  0.00    +0.000 OA
ENDROOT
BRANCH   8  19
ATOM      5  C   UNK     1     -14.707  14.031  -1.629  0.00  0.00    +0.000 A 
ATOM      6  C   UNK     1     -16.791  15.616  -1.422  0.00  0.00    +0.000 A 
ATOM     12  C   UNK     1     -16.779  14.776  -2.470  0.00  0.00    +0.000 A 
ATOM     14  C   UNK     1     -15.794  15.672  -0.524  0.00  0.00    +0.000 A 
ATOM     18  C   UNK     1     -15.704  13.969  -2.529  0.00  0.00    +0.000 A 
ATOM     19  C   UNK     1     -14.687  14.900  -0.597  0.00  0.00    +0.000 A 
BRANCH  12   4
ATOM      4  O   UNK     1     -17.843  14.768  -3.340  0.00  0.00    +0.000 OA
ATOM      9  C   UNK     1     -18.728  13.673  -3.316  0.00  0.00    +0.000 C 
ENDBRANCH  12   4
ENDBRANCH   8  19
BRANCH  16  15
ATOM     11  H   UNK     1     -10.130  14.408   4.236  0.00  0.00    +0.000 HD
ATOM     15  O   UNK     1     -10.693  15.188   4.370  0.00  0.00    +0.000 OA
ENDBRANCH  16  15
BRANCH   7  21
ATOM     20  H   UNK     1     -13.874  12.445   1.982  0.00  0.00    +0.000 HD
ATOM     21  O   UNK     1     -14.431  13.194   1.726  0.00  0.00    +0.000 OA
ENDBRANCH   7  21
TORSDOF 4
ENDMDL
MODEL 2
REMARK VINA RESULT:      -7.7      1.699      2.197
REMARK  Name = C:\Users\hp\OneDrive\Bureau\molecule article\SERIE MRZK\SERIE 4 A\DOC.9C8Q\lig4.pdb
REMARK  5 active torsions:
REMARK  status: ('A' for Active; 'I' for Inactive)
REMARK    1  A    between atoms: O_7  and  C_13
REMARK    2  A    between atoms: O_7  and  C_16
REMARK    3  A    between atoms: C_11  and  O_29
REMARK    4  A    between atoms: C_12  and  C_27
REMARK    5  A    between atoms: O_23  and  C_24
REMARK                            x       y       z     vdW  Elec       q    Type
REMARK                         _______ _______ _______ _____ _____    ______ ____
ROOT
ATOM      1  C   UNK     1     -10.527  16.063   1.088  0.00  0.00    +0.000 A 
ATOM      2  O   UNK     1     -11.351  15.208   0.428  0.00  0.00    +0.000 OA
ATOM      3  C   UNK     1      -8.775  17.609   0.929  0.00  0.00    +0.000 A 
ATOM      7  C   UNK     1     -12.360  14.696   2.475  0.00  0.00    +0.000 A 
ATOM      8  C   UNK     1     -12.343  14.579   1.127  0.00  0.00    +0.000 A 
ATOM     10  C   UNK     1      -9.634  16.757   0.359  0.00  0.00    +0.000 A 
ATOM     13  C   UNK     1      -8.815  17.761   2.256  0.00  0.00    +0.000 A 
ATOM     16  C   UNK     1      -9.689  17.083   3.022  0.00  0.00    +0.000 A 
ATOM     17  C   UNK     1     -11.477  15.510   3.136  0.00  0.00    +0.000 A 
ATOM     22  C   UNK     1     -10.556  16.228   2.425  0.00  0.00    +0.000 A 
ATOM     23  O   UNK     1     -11.554  15.568   4.350  0.00  0.00    +0.000 OA
ENDROOT
BRANCH   8  19
ATOM      5  C   UNK     1     -12.982  12.681  -0.260  0.00  0.00    +0.000 A 
ATOM      6  C   UNK     1     -15.449  13.574  -0.366  0.00  0.00    +0.000 A 
ATOM     12  C   UNK     1     -15.189  12.447  -1.050  0.00  0.00    +0.000 A 
ATOM     14  C   UNK     1     -14.510  14.234   0.329  0.00  0.00    +0.000 A 
ATOM     18  C   UNK     1     -13.919  12.014  -0.955  0.00  0.00    +0.000 A 
ATOM     19  C   UNK     1     -13.221  13.836   0.396  0.00  0.00    +0.000 A 
BRANCH  12   4
ATOM      4  O   UNK     1     -16.207  11.820  -1.728  0.00  0.00    +0.000 OA
ATOM      9  C   UNK     1     -17.111  12.607  -2.469  0.00  0.00    +0.000 C 
ENDBRANCH  12   4
ENDBRANCH   8  19
BRANCH  16  15
ATOM     11  H   UNK     1     -10.542  17.328   4.723  0.00  0.00    +0.000 HD
ATOM     15  O   UNK     1      -9.640  17.322   4.363  0.00  0.00    +0.000 OA
ENDBRANCH  16  15
BRANCH   7  21
ATOM     20  H   UNK     1     -13.540  13.219   2.793  0.00  0.00    +0.000 HD
ATOM     21  O   UNK     1     -13.184  13.972   3.286  0.00  0.00    +0.000 OA
ENDBRANCH   7  21
TORSDOF 4
ENDMDL
MODEL 3
REMARK VINA RESULT:      -7.2      1.938      6.951
REMARK  Name = C:\Users\hp\OneDrive\Bureau\molecule article\SERIE MRZK\SERIE 4 A\DOC.9C8Q\lig4.pdb
REMARK  5 active torsions:
REMARK  status: ('A' for Active; 'I' for Inactive)
REMARK    1  A    between atoms: O_7  and  C_13
REMARK    2  A    between atoms: O_7  and  C_16
REMARK    3  A    between atoms: C_11  and  O_29
REMARK    4  A    between atoms: C_12  and  C_27
REMARK    5  A    between atoms: O_23  and  C_24
REMARK                            x       y       z     vdW  Elec       q    Type
REMARK                         _______ _______ _______ _____ _____    ______ ____
ROOT
ATOM      1  C   UNK     1     -16.264  13.797  -0.220  0.00  0.00    +0.000 A 
ATOM      2  O   UNK     1     -15.357  14.263   0.676  0.00  0.00    +0.000 OA
ATOM      3  C   UNK     1     -18.469  13.889  -1.004  0.00  0.00    +0.000 A 
ATOM      7  C   UNK     1     -13.756  12.871  -0.310  0.00  0.00    +0.000 A 
ATOM      8  C   UNK     1     -14.057  13.854   0.571  0.00  0.00    +0.000 A 
ATOM     10  C   UNK     1     -17.510  14.302  -0.168  0.00  0.00    +0.000 A 
ATOM     13  C   UNK     1     -18.168  12.948  -1.904  0.00  0.00    +0.000 A 
ATOM     16  C   UNK     1     -16.936  12.414  -1.987  0.00  0.00    +0.000 A 
ATOM     17  C   UNK     1     -14.699  12.360  -1.163  0.00  0.00    +0.000 A 
ATOM     22  C   UNK     1     -15.975  12.850  -1.135  0.00  0.00    +0.000 A 
ATOM     23  O   UNK     1     -14.355  11.479  -1.930  0.00  0.00    +0.000 OA
ENDROOT
BRANCH   8  19
ATOM      5  C   UNK     1     -12.778  14.039   2.636  0.00  0.00    +0.000 A 
ATOM      6  C   UNK     1     -11.630  16.225   1.744  0.00  0.00    +0.000 A 
ATOM     12  C   UNK     1     -11.286  15.829   2.981  0.00  0.00    +0.000 A 
ATOM     14  C   UNK     1     -12.523  15.563   0.992  0.00  0.00    +0.000 A 
ATOM     18  C   UNK     1     -11.883  14.696   3.393  0.00  0.00    +0.000 A 
ATOM     19  C   UNK     1     -13.164  14.450   1.411  0.00  0.00    +0.000 A 
BRANCH  12   4
ATOM      4  O   UNK     1     -10.354  16.552   3.686  0.00  0.00    +0.000 OA
ATOM      9  C   UNK     1      -9.409  17.315   2.972  0.00  0.00    +0.000 C 
ENDBRANCH  12   4
ENDBRANCH   8  19
BRANCH  16  15
ATOM     11  H   UNK     1     -16.207  10.743  -2.583  0.00  0.00    +0.000 HD
ATOM     15  O   UNK     1     -16.744  11.465  -2.947  0.00  0.00    +0.000 OA
ENDBRANCH  16  15
BRANCH   7  21
ATOM     20  H   UNK     1     -12.651  11.307  -0.232  0.00  0.00    +0.000 HD
ATOM     21  O   UNK     1     -12.539  12.258  -0.372  0.00  0.00    +0.000 OA
ENDBRANCH   7  21
TORSDOF 4
ENDMDL
MODEL 4
REMARK VINA RESULT:      -7.0      1.692      6.692
REMARK  Name = C:\Users\hp\OneDrive\Bureau\molecule article\SERIE MRZK\SERIE 4 A\DOC.9C8Q\lig4.pdb
REMARK  5 active torsions:
REMARK  status: ('A' for Active; 'I' for Inactive)
REMARK    1  A    between atoms: O_7  and  C_13
REMARK    2  A    between atoms: O_7  and  C_16
REMARK    3  A    between atoms: C_11  and  O_29
REMARK    4  A    between atoms: C_12  and  C_27
REMARK    5  A    between atoms: O_23  and  C_24
REMARK                            x       y       z     vdW  Elec       q    Type
REMARK                         _______ _______ _______ _____ _____    ______ ____
ROOT
ATOM      1  C   UNK     1     -15.287  16.353  -0.001  0.00  0.00    +0.000 A 
ATOM      2  O   UNK     1     -14.156  16.723   0.656  0.00  0.00    +0.000 OA
ATOM      3  C   UNK     1     -17.205  17.054  -1.147  0.00  0.00    +0.000 A 
ATOM      7  C   UNK     1     -13.665  14.456   0.964  0.00  0.00    +0.000 A 
ATOM      8  C   UNK     1     -13.287  15.752   1.069  0.00  0.00    +0.000 A 
ATOM     10  C   UNK     1     -16.067  17.328  -0.499  0.00  0.00    +0.000 A 
ATOM     13  C   UNK     1     -17.563  15.774  -1.290  0.00  0.00    +0.000 A 
ATOM     16  C   UNK     1     -16.813  14.769  -0.804  0.00  0.00    +0.000 A 
ATOM     17  C   UNK     1     -14.843  14.100   0.360  0.00  0.00    +0.000 A 
ATOM     22  C   UNK     1     -15.660  15.067  -0.155  0.00  0.00    +0.000 A 
ATOM     23  O   UNK     1     -15.116  12.914   0.300  0.00  0.00    +0.000 OA
ENDROOT
BRANCH   8  19
ATOM      5  C   UNK     1     -11.656  15.997   2.862  0.00  0.00    +0.000 A 
ATOM      6  C   UNK     1     -10.052  17.298   1.241  0.00  0.00    +0.000 A 
ATOM     12  C   UNK     1      -9.629  17.144   2.507  0.00  0.00    +0.000 A 
ATOM     14  C   UNK     1     -11.234  16.833   0.808  0.00  0.00    +0.000 A 
ATOM     18  C   UNK     1     -10.472  16.457   3.299  0.00  0.00    +0.000 A 
ATOM     19  C   UNK     1     -12.110  16.181   1.605  0.00  0.00    +0.000 A 
BRANCH  12   4
ATOM      4  O   UNK     1      -8.400  17.637   2.872  0.00  0.00    +0.000 OA
ATOM      9  C   UNK     1      -7.648  18.354   1.919  0.00  0.00    +0.000 C 
ENDBRANCH  12   4
ENDBRANCH   8  19
BRANCH  16  15
ATOM     11  H   UNK     1     -17.719  13.185  -0.210  0.00  0.00    +0.000 HD
ATOM     15  O   UNK     1     -17.276  13.504  -1.014  0.00  0.00    +0.000 OA
ENDBRANCH  16  15
BRANCH   7  21
ATOM     20  H   UNK     1     -12.242  13.767   2.047  0.00  0.00    +0.000 HD
ATOM     21  O   UNK     1     -12.966  13.419   1.507  0.00  0.00    +0.000 OA
ENDBRANCH   7  21
TORSDOF 4
ENDMDL
MODEL 5
REMARK VINA RESULT:      -7.0      1.575      2.874
REMARK  Name = C:\Users\hp\OneDrive\Bureau\molecule article\SERIE MRZK\SERIE 4 A\DOC.9C8Q\lig4.pdb
REMARK  5 active torsions:
REMARK  status: ('A' for Active; 'I' for Inactive)
REMARK    1  A    between atoms: O_7  and  C_13
REMARK    2  A    between atoms: O_7  and  C_16
REMARK    3  A    between atoms: C_11  and  O_29
REMARK    4  A    between atoms: C_12  and  C_27
REMARK    5  A    between atoms: O_23  and  C_24
REMARK                            x       y       z     vdW  Elec       q    Type
REMARK                         _______ _______ _______ _____ _____    ______ ____
ROOT
ATOM      1  C   UNK     1     -12.648  15.835   1.600  0.00  0.00    +0.000 A 
ATOM      2  O   UNK     1     -13.801  15.603   0.922  0.00  0.00    +0.000 OA
ATOM      3  C   UNK     1     -11.270  15.218   3.390  0.00  0.00    +0.000 A 
ATOM      7  C   UNK     1     -13.216  17.329  -0.546  0.00  0.00    +0.000 A 
ATOM      8  C   UNK     1     -14.045  16.308  -0.224  0.00  0.00    +0.000 A 
ATOM     10  C   UNK     1     -12.376  15.050   2.658  0.00  0.00    +0.000 A 
ATOM     13  C   UNK     1     -10.425  16.197   3.053  0.00  0.00    +0.000 A 
ATOM     16  C   UNK     1     -10.661  17.008   2.005  0.00  0.00    +0.000 A 
ATOM     17  C   UNK     1     -12.089  17.596   0.189  0.00  0.00    +0.000 A 
ATOM     22  C   UNK     1     -11.785  16.818   1.271  0.00  0.00    +0.000 A 
ATOM     23  O   UNK     1     -11.388  18.528  -0.162  0.00  0.00    +0.000 OA
ENDROOT
BRANCH   8  19
ATOM      5  C   UNK     1     -16.420  16.368  -0.762  0.00  0.00    +0.000 A 
ATOM      6  C   UNK     1     -16.027  14.685  -2.739  0.00  0.00    +0.000 A 
ATOM     12  C   UNK     1     -17.294  15.080  -2.530  0.00  0.00    +0.000 A 
ATOM     14  C   UNK     1     -15.002  15.103  -1.980  0.00  0.00    +0.000 A 
ATOM     18  C   UNK     1     -17.449  15.955  -1.521  0.00  0.00    +0.000 A 
ATOM     19  C   UNK     1     -15.150  15.947  -0.934  0.00  0.00    +0.000 A 
BRANCH  12   4
ATOM      4  O   UNK     1     -18.289  14.617  -3.358  0.00  0.00    +0.000 OA
ATOM      9  C   UNK     1     -18.897  13.382  -3.060  0.00  0.00    +0.000 C 
ENDBRANCH  12   4
ENDBRANCH   8  19
BRANCH  16  15
ATOM     11  H   UNK     1      -9.151  18.069   2.529  0.00  0.00    +0.000 HD
ATOM     15  O   UNK     1      -9.727  17.968   1.753  0.00  0.00    +0.000 OA
ENDBRANCH  16  15
BRANCH   7  21
ATOM     20  H   UNK     1     -12.668  18.746  -1.713  0.00  0.00    +0.000 HD
ATOM     21  O   UNK     1     -13.460  18.212  -1.555  0.00  0.00    +0.000 OA
ENDBRANCH   7  21
TORSDOF 4
ENDMDL
MODEL 6
REMARK VINA RESULT:      -6.8      4.428      5.604
REMARK  Name = C:\Users\hp\OneDrive\Bureau\molecule article\SERIE MRZK\SERIE 4 A\DOC.9C8Q\lig4.pdb
REMARK  5 active torsions:
REMARK  status: ('A' for Active; 'I' for Inactive)
REMARK    1  A    between atoms: O_7  and  C_13
REMARK    2  A    between atoms: O_7  and  C_16
REMARK    3  A    between atoms: C_11  and  O_29
REMARK    4  A    between atoms: C_12  and  C_27
REMARK    5  A    between atoms: O_23  and  C_24
REMARK                            x       y       z     vdW  Elec       q    Type
REMARK                         _______ _______ _______ _____ _____    ______ ____
ROOT
ATOM      1  C   UNK     1     -15.307  18.021  -2.015  0.00  0.00    +0.000 A 
ATOM      2  O   UNK     1     -15.235  16.667  -2.086  0.00  0.00    +0.000 OA
ATOM      3  C   UNK     1     -14.272  20.066  -2.496  0.00  0.00    +0.000 A 
ATOM      7  C   UNK     1     -17.328  16.560  -1.046  0.00  0.00    +0.000 A 
ATOM      8  C   UNK     1     -16.308  15.928  -1.671  0.00  0.00    +0.000 A 
ATOM     10  C   UNK     1     -14.289  18.729  -2.536  0.00  0.00    +0.000 A 
ATOM     13  C   UNK     1     -15.296  20.699  -1.917  0.00  0.00    +0.000 A 
ATOM     16  C   UNK     1     -16.333  20.029  -1.381  0.00  0.00    +0.000 A 
ATOM     17  C   UNK     1     -17.355  17.925  -0.920  0.00  0.00    +0.000 A 
ATOM     22  C   UNK     1     -16.335  18.674  -1.436  0.00  0.00    +0.000 A 
ATOM     23  O   UNK     1     -18.307  18.426  -0.348  0.00  0.00    +0.000 OA
ENDROOT
BRANCH   8  19
ATOM      5  C   UNK     1     -17.061  13.818  -2.628  0.00  0.00    +0.000 A 
ATOM      6  C   UNK     1     -15.046  12.571  -1.495  0.00  0.00    +0.000 A 
ATOM     12  C   UNK     1     -15.899  11.813  -2.205  0.00  0.00    +0.000 A 
ATOM     14  C   UNK     1     -15.204  13.896  -1.347  0.00  0.00    +0.000 A 
ATOM     18  C   UNK     1     -16.906  12.492  -2.783  0.00  0.00    +0.000 A 
ATOM     19  C   UNK     1     -16.236  14.584  -1.884  0.00  0.00    +0.000 A 
BRANCH  12   4
ATOM      4  O   UNK     1     -15.663  10.464  -2.322  0.00  0.00    +0.000 OA
ATOM      9  C   UNK     1     -14.330  10.007  -2.311  0.00  0.00    +0.000 C 
ENDBRANCH  12   4
ENDBRANCH   8  19
BRANCH  16  15
ATOM     11  H   UNK     1     -17.741  21.325  -1.508  0.00  0.00    +0.000 HD
ATOM     15  O   UNK     1     -17.323  20.781  -0.822  0.00  0.00    +0.000 OA
ENDBRANCH  16  15
BRANCH   7  21
ATOM     20  H   UNK     1     -18.707  15.230  -1.022  0.00  0.00    +0.000 HD
ATOM     21  O   UNK     1     -18.357  15.911  -0.430  0.00  0.00    +0.000 OA
ENDBRANCH   7  21
TORSDOF 4
ENDMDL
MODEL 7
REMARK VINA RESULT:      -6.8      3.652      6.394
REMARK  Name = C:\Users\hp\OneDrive\Bureau\molecule article\SERIE MRZK\SERIE 4 A\DOC.9C8Q\lig4.pdb
REMARK  5 active torsions:
REMARK  status: ('A' for Active; 'I' for Inactive)
REMARK    1  A    between atoms: O_7  and  C_13
REMARK    2  A    between atoms: O_7  and  C_16
REMARK    3  A    between atoms: C_11  and  O_29
REMARK    4  A    between atoms: C_12  and  C_27
REMARK    5  A    between atoms: O_23  and  C_24
REMARK                            x       y       z     vdW  Elec       q    Type
REMARK                         _______ _______ _______ _____ _____    ______ ____
ROOT
ATOM      1  C   UNK     1     -16.437  15.180  -2.087  0.00  0.00    +0.000 A 
ATOM      2  O   UNK     1     -16.410  16.528  -2.252  0.00  0.00    +0.000 OA
ATOM      3  C   UNK     1     -17.229  13.125  -2.881  0.00  0.00    +0.000 A 
ATOM      7  C   UNK     1     -15.015  16.670  -0.379  0.00  0.00    +0.000 A 
ATOM      8  C   UNK     1     -15.613  17.276  -1.432  0.00  0.00    +0.000 A 
ATOM     10  C   UNK     1     -17.138  14.456  -2.977  0.00  0.00    +0.000 A 
ATOM     13  C   UNK     1     -16.607  12.515  -1.868  0.00  0.00    +0.000 A 
ATOM     16  C   UNK     1     -15.898  13.203  -0.953  0.00  0.00    +0.000 A 
ATOM     17  C   UNK     1     -15.107  15.316  -0.185  0.00  0.00    +0.000 A 
ATOM     22  C   UNK     1     -15.813  14.551  -1.071  0.00  0.00    +0.000 A 
ATOM     23  O   UNK     1     -14.541  14.840   0.782  0.00  0.00    +0.000 OA
ENDROOT
BRANCH   8  19
ATOM      5  C   UNK     1     -16.432  19.570  -1.478  0.00  0.00    +0.000 A 
ATOM      6  C   UNK     1     -14.196  20.359  -2.606  0.00  0.00    +0.000 A 
ATOM     12  C   UNK     1     -15.127  21.304  -2.395  0.00  0.00    +0.000 A 
ATOM     14  C   UNK     1     -14.382  19.071  -2.279  0.00  0.00    +0.000 A 
ATOM     18  C   UNK     1     -16.249  20.862  -1.800  0.00  0.00    +0.000 A 
ATOM     19  C   UNK     1     -15.522  18.605  -1.722  0.00  0.00    +0.000 A 
BRANCH  12   4
ATOM      4  O   UNK     1     -14.858  22.606  -2.745  0.00  0.00    +0.000 OA
ATOM      9  C   UNK     1     -13.518  23.040  -2.753  0.00  0.00    +0.000 C 
ENDBRANCH  12   4
ENDBRANCH   8  19
BRANCH  16  15
ATOM     11  H   UNK     1     -15.368  12.956   0.873  0.00  0.00    +0.000 HD
ATOM     15  O   UNK     1     -15.303  12.474   0.033  0.00  0.00    +0.000 OA
ENDBRANCH  16  15
BRANCH   7  21
ATOM     20  H   UNK     1     -13.648  16.780   0.959  0.00  0.00    +0.000 HD
ATOM     21  O   UNK     1     -14.351  17.343   0.603  0.00  0.00    +0.000 OA
ENDBRANCH   7  21
TORSDOF 4
ENDMDL
MODEL 8
REMARK VINA RESULT:      -6.7      3.634      5.341
REMARK  Name = C:\Users\hp\OneDrive\Bureau\molecule article\SERIE MRZK\SERIE 4 A\DOC.9C8Q\lig4.pdb
REMARK  5 active torsions:
REMARK  status: ('A' for Active; 'I' for Inactive)
REMARK    1  A    between atoms: O_7  and  C_13
REMARK    2  A    between atoms: O_7  and  C_16
REMARK    3  A    between atoms: C_11  and  O_29
REMARK    4  A    between atoms: C_12  and  C_27
REMARK    5  A    between atoms: O_23  and  C_24
REMARK                            x       y       z     vdW  Elec       q    Type
REMARK                         _______ _______ _______ _____ _____    ______ ____
ROOT
ATOM      1  C   UNK     1     -13.618  13.017  -1.131  0.00  0.00    +0.000 A 
ATOM      2  O   UNK     1     -14.187  14.251  -1.134  0.00  0.00    +0.000 OA
ATOM      3  C   UNK     1     -11.697  11.746  -0.710  0.00  0.00    +0.000 A 
ATOM      7  C   UNK     1     -16.178  13.267  -1.867  0.00  0.00    +0.000 A 
ATOM      8  C   UNK     1     -15.518  14.362  -1.425  0.00  0.00    +0.000 A 
ATOM     10  C   UNK     1     -12.339  12.920  -0.729  0.00  0.00    +0.000 A 
ATOM     13  C   UNK     1     -12.357  10.654  -1.106  0.00  0.00    +0.000 A 
ATOM     16  C   UNK     1     -13.636  10.708  -1.519  0.00  0.00    +0.000 A 
ATOM     17  C   UNK     1     -15.572  12.039  -1.925  0.00  0.00    +0.000 A 
ATOM     22  C   UNK     1     -14.272  11.906  -1.526  0.00  0.00    +0.000 A 
ATOM     23  O   UNK     1     -16.229  11.098  -2.331  0.00  0.00    +0.000 OA
ENDROOT
BRANCH   8  19
ATOM      5  C   UNK     1     -17.177  15.945  -0.601  0.00  0.00    +0.000 A 
ATOM      6  C   UNK     1     -15.892  17.916  -1.766  0.00  0.00    +0.000 A 
ATOM     12  C   UNK     1     -17.023  18.239  -1.116  0.00  0.00    +0.000 A 
ATOM     14  C   UNK     1     -15.432  16.658  -1.843  0.00  0.00    +0.000 A 
ATOM     18  C   UNK     1     -17.640  17.203  -0.519  0.00  0.00    +0.000 A 
ATOM     19  C   UNK     1     -16.066  15.602  -1.286  0.00  0.00    +0.000 A 
BRANCH  12   4
ATOM      4  O   UNK     1     -17.423  19.553  -1.071  0.00  0.00    +0.000 OA
ATOM      9  C   UNK     1     -16.740  20.495  -1.864  0.00  0.00    +0.000 C 
ENDBRANCH  12   4
ENDBRANCH   8  19
BRANCH  16  15
ATOM     11  H   UNK     1     -13.638   8.792  -1.619  0.00  0.00    +0.000 HD
ATOM     15  O   UNK     1     -14.208   9.529  -1.895  0.00  0.00    +0.000 OA
ENDBRANCH  16  15
BRANCH   7  21
ATOM     20  H   UNK     1     -18.006  12.692  -1.849  0.00  0.00    +0.000 HD
ATOM     21  O   UNK     1     -17.450  13.298  -2.359  0.00  0.00    +0.000 OA
ENDBRANCH   7  21
TORSDOF 4
ENDMDL
MODEL 9
REMARK VINA RESULT:      -6.6      1.499      1.988
REMARK  Name = C:\Users\hp\OneDrive\Bureau\molecule article\SERIE MRZK\SERIE 4 A\DOC.9C8Q\lig4.pdb
REMARK  5 active torsions:
REMARK  status: ('A' for Active; 'I' for Inactive)
REMARK    1  A    between atoms: O_7  and  C_13
REMARK    2  A    between atoms: O_7  and  C_16
REMARK    3  A    between atoms: C_11  and  O_29
REMARK    4  A    between atoms: C_12  and  C_27
REMARK    5  A    between atoms: O_23  and  C_24
REMARK                            x       y       z     vdW  Elec       q    Type
REMARK                         _______ _______ _______ _____ _____    ______ ____
ROOT
ATOM      1  C   UNK     1     -13.073  16.539   0.065  0.00  0.00    +0.000 A 
ATOM      2  O   UNK     1     -14.175  15.957  -0.475  0.00  0.00    +0.000 OA
ATOM      3  C   UNK     1     -11.608  18.365   0.034  0.00  0.00    +0.000 A 
ATOM      7  C   UNK     1     -13.917  14.197   1.043  0.00  0.00    +0.000 A 
ATOM      8  C   UNK     1     -14.654  14.806   0.086  0.00  0.00    +0.000 A 
ATOM     10  C   UNK     1     -12.689  17.730  -0.430  0.00  0.00    +0.000 A 
ATOM     13  C   UNK     1     -10.899  17.789   1.009  0.00  0.00    +0.000 A 
ATOM     16  C   UNK     1     -11.246  16.597   1.529  0.00  0.00    +0.000 A 
ATOM     17  C   UNK     1     -12.768  14.762   1.532  0.00  0.00    +0.000 A 
ATOM     22  C   UNK     1     -12.349  15.970   1.050  0.00  0.00    +0.000 A 
ATOM     23  O   UNK     1     -12.158  14.157   2.396  0.00  0.00    +0.000 OA
ENDROOT
BRANCH   8  19
ATOM      5  C   UNK     1     -17.076  14.806  -0.176  0.00  0.00    +0.000 A 
ATOM      6  C   UNK     1     -16.909  12.769  -1.826  0.00  0.00    +0.000 A 
ATOM     12  C   UNK     1     -18.145  13.220  -1.552  0.00  0.00    +0.000 A 
ATOM     14  C   UNK     1     -15.805  13.306  -1.285  0.00  0.00    +0.000 A 
ATOM     18  C   UNK     1     -18.185  14.274  -0.718  0.00  0.00    +0.000 A 
ATOM     19  C   UNK     1     -15.833  14.336  -0.410  0.00  0.00    +0.000 A 
BRANCH  12   4
ATOM      4  O   UNK     1     -19.228  12.626  -2.155  0.00  0.00    +0.000 OA
ATOM      9  C   UNK     1     -19.561  13.005  -3.471  0.00  0.00    +0.000 C 
ENDBRANCH  12   4
ENDBRANCH   8  19
BRANCH  16  15
ATOM     11  H   UNK     1      -9.713  16.722   2.676  0.00  0.00    +0.000 HD
ATOM     15  O   UNK     1     -10.450  16.109   2.522  0.00  0.00    +0.000 OA
ENDBRANCH  16  15
BRANCH   7  21
ATOM     20  H   UNK     1     -14.068  12.961   2.500  0.00  0.00    +0.000 HD
ATOM     21  O   UNK     1     -14.199  12.959   1.541  0.00  0.00    +0.000 OA
ENDBRANCH   7  21
TORSDOF 4
ENDMDL
MODEL 10
REMARK VINA RESULT:      -6.4      3.755      5.160
REMARK  Name = C:\Users\hp\OneDrive\Bureau\molecule article\SERIE MRZK\SERIE 4 A\DOC.9C8Q\lig4.pdb
REMARK  5 active torsions:
REMARK  status: ('A' for Active; 'I' for Inactive)
REMARK    1  A    between atoms: O_7  and  C_13
REMARK    2  A    between atoms: O_7  and  C_16
REMARK    3  A    between atoms: C_11  and  O_29
REMARK    4  A    between atoms: C_12  and  C_27
REMARK    5  A    between atoms: O_23  and  C_24
REMARK                            x       y       z     vdW  Elec       q    Type
REMARK                         _______ _______ _______ _____ _____    ______ ____
ROOT
ATOM      1  C   UNK     1     -13.636  18.679  -0.938  0.00  0.00    +0.000 A 
ATOM      2  O   UNK     1     -14.518  17.646  -0.916  0.00  0.00    +0.000 OA
ATOM      3  C   UNK     1     -11.419  19.368  -0.634  0.00  0.00    +0.000 A 
ATOM      7  C   UNK     1     -16.197  19.144  -1.557  0.00  0.00    +0.000 A 
ATOM      8  C   UNK     1     -15.805  17.870  -1.318  0.00  0.00    +0.000 A 
ATOM     10  C   UNK     1     -12.350  18.409  -0.649  0.00  0.00    +0.000 A 
ATOM     13  C   UNK     1     -11.791  20.622  -0.909  0.00  0.00    +0.000 A 
ATOM     16  C   UNK     1     -13.067  20.936  -1.199  0.00  0.00    +0.000 A 
ATOM     17  C   UNK     1     -15.310  20.188  -1.508  0.00  0.00    +0.000 A 
ATOM     22  C   UNK     1     -13.996  19.948  -1.216  0.00  0.00    +0.000 A 
ATOM     23  O   UNK     1     -15.733  21.306  -1.737  0.00  0.00    +0.000 OA
ENDROOT
BRANCH   8  19
ATOM      5  C   UNK     1     -17.593  16.404  -0.553  0.00  0.00    +0.000 A 
ATOM      6  C   UNK     1     -17.235  14.856  -2.643  0.00  0.00    +0.000 A 
ATOM     12  C   UNK     1     -18.181  14.473  -1.768  0.00  0.00    +0.000 A 
ATOM     14  C   UNK     1     -16.491  15.959  -2.471  0.00  0.00    +0.000 A 
ATOM     18  C   UNK     1     -18.344  15.302  -0.722  0.00  0.00    +0.000 A 
ATOM     19  C   UNK     1     -16.613  16.776  -1.401  0.00  0.00    +0.000 A 
BRANCH  12   4
ATOM      4  O   UNK     1     -18.912  13.337  -2.021  0.00  0.00    +0.000 OA
ATOM      9  C   UNK     1     -19.328  13.080  -3.342  0.00  0.00    +0.000 C 
ENDBRANCH  12   4
ENDBRANCH   8  19
BRANCH  16  15
ATOM     11  H   UNK     1     -12.495  22.745  -1.479  0.00  0.00    +0.000 HD
ATOM     15  O   UNK     1     -13.328  22.246  -1.468  0.00  0.00    +0.000 OA
ENDBRANCH  16  15
BRANCH   7  21
ATOM     20  H   UNK     1     -17.628  20.415  -1.479  0.00  0.00    +0.000 HD
ATOM     21  O   UNK     1     -17.492  19.506  -1.783  0.00  0.00    +0.000 OA
ENDBRANCH   7  21
TORSDOF 4
ENDMDL
