MODEL 1
REMARK VINA RESULT:      -7.6      0.000      0.000
REMARK  Name = C:\Users\hp\OneDrive\Bureau\molecule article\SERIE MRZK\SERIE 4 A\DOC.9C8Q\lig5.pdb
REMARK  4 active torsions:
REMARK  status: ('A' for Active; 'I' for Inactive)
REMARK    1  A    between atoms: C_13  and  O_18
REMARK    2  A    between atoms: C_19  and  N_22
REMARK    3  A    between atoms: C_20  and  C_30
REMARK    4  A    between atoms: C_21  and  O_23
REMARK                            x       y       z     vdW  Elec       q    Type
REMARK                         _______ _______ _______ _____ _____    ______ ____
ROOT
ATOM      1  C   UNK     1     -15.235  12.301  -1.508  0.00  0.00    +0.000 A 
ATOM      2  C   UNK     1     -16.205  11.938  -2.352  0.00  0.00    +0.000 A 
ATOM      6  C   UNK     1     -17.116  12.849  -2.707  0.00  0.00    +0.000 A 
ATOM      8  C   UNK     1     -15.164  13.549  -1.011  0.00  0.00    +0.000 A 
ATOM     10  C   UNK     1     -15.000  15.998   0.054  0.00  0.00    +0.000 A 
ATOM     11  O   UNK     1     -16.762  16.610  -1.149  0.00  0.00    +0.000 OA
ATOM     15  C   UNK     1     -14.105  15.058   0.442  0.00  0.00    +0.000 A 
ATOM     16  C   UNK     1     -17.079  14.110  -2.236  0.00  0.00    +0.000 A 
ATOM     19  O   UNK     1     -14.135  13.836  -0.170  0.00  0.00    +0.000 OA
ATOM     20  C   UNK     1     -15.991  15.716  -0.849  0.00  0.00    +0.000 A 
ATOM     24  C   UNK     1     -16.091  14.457  -1.375  0.00  0.00    +0.000 A 
ENDROOT
BRANCH  15  23
ATOM      5  C   UNK     1     -11.254  16.318   2.356  0.00  0.00    +0.000 A 
ATOM      7  C   UNK     1     -12.180  14.508   3.425  0.00  0.00    +0.000 A 
ATOM     14  C   UNK     1     -11.242  15.461   3.385  0.00  0.00    +0.000 A 
ATOM     21  C   UNK     1     -13.096  14.419   2.446  0.00  0.00    +0.000 A 
ATOM     22  C   UNK     1     -12.180  16.207   1.390  0.00  0.00    +0.000 A 
ATOM     23  C   UNK     1     -13.128  15.245   1.374  0.00  0.00    +0.000 A 
BRANCH  14  17
ATOM      3  H   UNK     1      -9.653  14.806   4.430  0.00  0.00    +0.000 HD
ATOM      4  H   UNK     1     -10.372  16.392   4.940  0.00  0.00    +0.000 HD
ATOM     17  N   UNK     1     -10.374  15.559   4.303  0.00  0.00    +0.000 N 
ENDBRANCH  14  17
ENDBRANCH  15  23
BRANCH  10  13
ATOM      9  H   UNK     1     -14.038  17.619   0.409  0.00  0.00    +0.000 HD
ATOM     13  O   UNK     1     -14.950  17.301   0.455  0.00  0.00    +0.000 OA
ENDBRANCH  10  13
BRANCH  16  18
ATOM     12  H   UNK     1     -17.662  15.770  -2.998  0.00  0.00    +0.000 HD
ATOM     18  O   UNK     1     -18.062  14.951  -2.664  0.00  0.00    +0.000 OA
ENDBRANCH  16  18
TORSDOF 4
ENDMDL
MODEL 2
REMARK VINA RESULT:      -7.5      1.875      2.973
REMARK  Name = C:\Users\hp\OneDrive\Bureau\molecule article\SERIE MRZK\SERIE 4 A\DOC.9C8Q\lig5.pdb
REMARK  4 active torsions:
REMARK  status: ('A' for Active; 'I' for Inactive)
REMARK    1  A    between atoms: C_13  and  O_18
REMARK    2  A    between atoms: C_19  and  N_22
REMARK    3  A    between atoms: C_20  and  C_30
REMARK    4  A    between atoms: C_21  and  O_23
REMARK                            x       y       z     vdW  Elec       q    Type
REMARK                         _______ _______ _______ _____ _____    ______ ____
ROOT
ATOM      1  C   UNK     1     -16.298  14.588  -0.086  0.00  0.00    +0.000 A 
ATOM      2  C   UNK     1     -17.230  13.977  -0.824  0.00  0.00    +0.000 A 
ATOM      6  C   UNK     1     -16.901  12.847  -1.458  0.00  0.00    +0.000 A 
ATOM      8  C   UNK     1     -15.051  14.096   0.024  0.00  0.00    +0.000 A 
ATOM     10  C   UNK     1     -12.540  13.199   0.237  0.00  0.00    +0.000 A 
ATOM     11  O   UNK     1     -13.088  11.448  -1.012  0.00  0.00    +0.000 OA
ATOM     15  C   UNK     1     -12.868  14.365   0.843  0.00  0.00    +0.000 A 
ATOM     16  C   UNK     1     -15.666  12.319  -1.372  0.00  0.00    +0.000 A 
ATOM     19  O   UNK     1     -14.172  14.774   0.808  0.00  0.00    +0.000 OA
ATOM     20  C   UNK     1     -13.455  12.487  -0.493  0.00  0.00    +0.000 A 
ATOM     24  C   UNK     1     -14.732  12.958  -0.623  0.00  0.00    +0.000 A 
ENDROOT
BRANCH  15  23
ATOM      5  C   UNK     1     -10.267  16.753   1.799  0.00  0.00    +0.000 A 
ATOM      7  C   UNK     1     -11.274  15.893   3.677  0.00  0.00    +0.000 A 
ATOM     14  C   UNK     1     -10.354  16.699   3.134  0.00  0.00    +0.000 A 
ATOM     21  C   UNK     1     -12.074  15.156   2.890  0.00  0.00    +0.000 A 
ATOM     22  C   UNK     1     -11.080  16.005   1.035  0.00  0.00    +0.000 A 
ATOM     23  C   UNK     1     -12.003  15.156   1.537  0.00  0.00    +0.000 A 
BRANCH  14  17
ATOM      3  H   UNK     1      -9.375  18.394   3.597  0.00  0.00    +0.000 HD
ATOM      4  H   UNK     1      -9.178  16.997   4.738  0.00  0.00    +0.000 HD
ATOM     17  N   UNK     1      -9.593  17.403   3.864  0.00  0.00    +0.000 N 
ENDBRANCH  14  17
ENDBRANCH  15  23
BRANCH  10  13
ATOM      9  H   UNK     1     -10.946  12.804   1.229  0.00  0.00    +0.000 HD
ATOM     13  O   UNK     1     -11.321  12.599   0.361  0.00  0.00    +0.000 OA
ENDBRANCH  10  13
BRANCH  16  18
ATOM     12  H   UNK     1     -14.490  11.054  -2.206  0.00  0.00    +0.000 HD
ATOM     18  O   UNK     1     -15.444  11.166  -2.065  0.00  0.00    +0.000 OA
ENDBRANCH  16  18
TORSDOF 4
ENDMDL
MODEL 3
REMARK VINA RESULT:      -7.4      1.830      3.134
REMARK  Name = C:\Users\hp\OneDrive\Bureau\molecule article\SERIE MRZK\SERIE 4 A\DOC.9C8Q\lig5.pdb
REMARK  4 active torsions:
REMARK  status: ('A' for Active; 'I' for Inactive)
REMARK    1  A    between atoms: C_13  and  O_18
REMARK    2  A    between atoms: C_19  and  N_22
REMARK    3  A    between atoms: C_20  and  C_30
REMARK    4  A    between atoms: C_21  and  O_23
REMARK                            x       y       z     vdW  Elec       q    Type
REMARK                         _______ _______ _______ _____ _____    ______ ____
ROOT
ATOM      1  C   UNK     1     -15.944  17.248  -0.552  0.00  0.00    +0.000 A 
ATOM      2  C   UNK     1     -17.039  16.935  -1.251  0.00  0.00    +0.000 A 
ATOM      6  C   UNK     1     -17.360  15.645  -1.390  0.00  0.00    +0.000 A 
ATOM      8  C   UNK     1     -15.167  16.301   0.003  0.00  0.00    +0.000 A 
ATOM     10  C   UNK     1     -13.552  14.462   1.083  0.00  0.00    +0.000 A 
ATOM     11  O   UNK     1     -14.930  12.874   0.373  0.00  0.00    +0.000 OA
ATOM     15  C   UNK     1     -13.210  15.769   1.184  0.00  0.00    +0.000 A 
ATOM     16  C   UNK     1     -16.612  14.666  -0.848  0.00  0.00    +0.000 A 
ATOM     19  O   UNK     1     -14.082  16.709   0.711  0.00  0.00    +0.000 OA
ATOM     20  C   UNK     1     -14.688  14.066   0.426  0.00  0.00    +0.000 A 
ATOM     24  C   UNK     1     -15.501  15.003  -0.147  0.00  0.00    +0.000 A 
ENDROOT
BRANCH  15  23
ATOM      5  C   UNK     1     -10.450  16.435   3.490  0.00  0.00    +0.000 A 
ATOM      7  C   UNK     1     -10.142  17.605   1.537  0.00  0.00    +0.000 A 
ATOM     14  C   UNK     1      -9.716  17.289   2.766  0.00  0.00    +0.000 A 
ATOM     21  C   UNK     1     -11.284  17.080   1.062  0.00  0.00    +0.000 A 
ATOM     22  C   UNK     1     -11.588  15.925   2.992  0.00  0.00    +0.000 A 
ATOM     23  C   UNK     1     -12.072  16.237   1.770  0.00  0.00    +0.000 A 
BRANCH  14  17
ATOM      3  H   UNK     1      -7.735  17.254   3.110  0.00  0.00    +0.000 HD
ATOM      4  H   UNK     1      -8.647  18.697   3.725  0.00  0.00    +0.000 HD
ATOM     17  N   UNK     1      -8.639  17.774   3.226  0.00  0.00    +0.000 N 
ENDBRANCH  14  17
ENDBRANCH  15  23
BRANCH  10  13
ATOM      9  H   UNK     1     -13.332  12.616   1.556  0.00  0.00    +0.000 HD
ATOM     13  O   UNK     1     -12.857  13.450   1.679  0.00  0.00    +0.000 OA
ENDBRANCH  10  13
BRANCH  16  18
ATOM     12  H   UNK     1     -17.145  12.940  -0.204  0.00  0.00    +0.000 HD
ATOM     18  O   UNK     1     -17.033  13.387  -1.058  0.00  0.00    +0.000 OA
ENDBRANCH  16  18
TORSDOF 4
ENDMDL
MODEL 4
REMARK VINA RESULT:      -7.4      3.352      6.813
REMARK  Name = C:\Users\hp\OneDrive\Bureau\molecule article\SERIE MRZK\SERIE 4 A\DOC.9C8Q\lig5.pdb
REMARK  4 active torsions:
REMARK  status: ('A' for Active; 'I' for Inactive)
REMARK    1  A    between atoms: C_13  and  O_18
REMARK    2  A    between atoms: C_19  and  N_22
REMARK    3  A    between atoms: C_20  and  C_30
REMARK    4  A    between atoms: C_21  and  O_23
REMARK                            x       y       z     vdW  Elec       q    Type
REMARK                         _______ _______ _______ _____ _____    ______ ____
ROOT
ATOM      1  C   UNK     1      -9.807  16.902   0.367  0.00  0.00    +0.000 A 
ATOM      2  C   UNK     1      -8.953  17.730   0.976  0.00  0.00    +0.000 A 
ATOM      6  C   UNK     1      -8.937  17.759   2.313  0.00  0.00    +0.000 A 
ATOM      8  C   UNK     1     -10.644  16.113   1.065  0.00  0.00    +0.000 A 
ATOM     10  C   UNK     1     -12.370  14.561   2.394  0.00  0.00    +0.000 A 
ATOM     11  O   UNK     1     -11.508  15.287   4.307  0.00  0.00    +0.000 OA
ATOM     15  C   UNK     1     -12.410  14.568   1.041  0.00  0.00    +0.000 A 
ATOM     16  C   UNK     1      -9.754  16.983   3.049  0.00  0.00    +0.000 A 
ATOM     19  O   UNK     1     -11.469  15.291   0.364  0.00  0.00    +0.000 OA
ATOM     20  C   UNK     1     -11.485  15.342   3.090  0.00  0.00    +0.000 A 
ATOM     24  C   UNK     1     -10.619  16.155   2.412  0.00  0.00    +0.000 A 
ENDROOT
BRANCH  15  23
ATOM      5  C   UNK     1     -14.012  12.076  -1.104  0.00  0.00    +0.000 A 
ATOM      7  C   UNK     1     -15.522  13.711  -0.536  0.00  0.00    +0.000 A 
ATOM     14  C   UNK     1     -15.249  12.579  -1.196  0.00  0.00    +0.000 A 
ATOM     21  C   UNK     1     -14.566  14.320   0.184  0.00  0.00    +0.000 A 
ATOM     22  C   UNK     1     -13.074  12.705  -0.378  0.00  0.00    +0.000 A 
ATOM     23  C   UNK     1     -13.295  13.863   0.281  0.00  0.00    +0.000 A 
BRANCH  14  17
ATOM      3  H   UNK     1     -17.129  11.939  -1.521  0.00  0.00    +0.000 HD
ATOM      4  H   UNK     1     -15.900  11.554  -2.799  0.00  0.00    +0.000 HD
ATOM     17  N   UNK     1     -16.142  11.991  -1.877  0.00  0.00    +0.000 N 
ENDBRANCH  14  17
ENDBRANCH  15  23
BRANCH  10  13
ATOM      9  H   UNK     1     -13.838  14.250   3.589  0.00  0.00    +0.000 HD
ATOM     13  O   UNK     1     -13.132  13.738   3.170  0.00  0.00    +0.000 OA
ENDBRANCH  10  13
BRANCH  16  18
ATOM     12  H   UNK     1      -8.740  16.914   4.675  0.00  0.00    +0.000 HD
ATOM     18  O   UNK     1      -9.653  17.100   4.403  0.00  0.00    +0.000 OA
ENDBRANCH  16  18
TORSDOF 4
ENDMDL
MODEL 5
REMARK VINA RESULT:      -7.4      3.254      6.498
REMARK  Name = C:\Users\hp\OneDrive\Bureau\molecule article\SERIE MRZK\SERIE 4 A\DOC.9C8Q\lig5.pdb
REMARK  4 active torsions:
REMARK  status: ('A' for Active; 'I' for Inactive)
REMARK    1  A    between atoms: C_13  and  O_18
REMARK    2  A    between atoms: C_19  and  N_22
REMARK    3  A    between atoms: C_20  and  C_30
REMARK    4  A    between atoms: C_21  and  O_23
REMARK                            x       y       z     vdW  Elec       q    Type
REMARK                         _______ _______ _______ _____ _____    ______ ____
ROOT
ATOM      1  C   UNK     1     -13.463  17.833  -0.766  0.00  0.00    +0.000 A 
ATOM      2  C   UNK     1     -12.431  18.511  -0.256  0.00  0.00    +0.000 A 
ATOM      6  C   UNK     1     -11.729  17.953   0.735  0.00  0.00    +0.000 A 
ATOM      8  C   UNK     1     -13.806  16.618  -0.303  0.00  0.00    +0.000 A 
ATOM     10  C   UNK     1     -14.573  14.223   0.611  0.00  0.00    +0.000 A 
ATOM     11  O   UNK     1     -12.861  14.244   2.023  0.00  0.00    +0.000 OA
ATOM     15  C   UNK     1     -15.305  14.813  -0.363  0.00  0.00    +0.000 A 
ATOM     16  C   UNK     1     -12.036  16.738   1.225  0.00  0.00    +0.000 A 
ATOM     19  O   UNK     1     -14.861  15.993  -0.891  0.00  0.00    +0.000 OA
ATOM     20  C   UNK     1     -13.469  14.833   1.148  0.00  0.00    +0.000 A 
ATOM     24  C   UNK     1     -13.091  16.068   0.699  0.00  0.00    +0.000 A 
ENDROOT
BRANCH  15  23
ATOM      5  C   UNK     1     -18.730  13.662  -0.937  0.00  0.00    +0.000 A 
ATOM      7  C   UNK     1     -17.469  13.356  -2.834  0.00  0.00    +0.000 A 
ATOM     14  C   UNK     1     -18.644  13.236  -2.204  0.00  0.00    +0.000 A 
ATOM     21  C   UNK     1     -16.411  13.881  -2.195  0.00  0.00    +0.000 A 
ATOM     22  C   UNK     1     -17.656  14.183  -0.321  0.00  0.00    +0.000 A 
ATOM     23  C   UNK     1     -16.444  14.297  -0.907  0.00  0.00    +0.000 A 
BRANCH  14  17
ATOM      3  H   UNK     1     -19.824  11.710  -2.776  0.00  0.00    +0.000 HD
ATOM      4  H   UNK     1     -20.320  13.373  -3.307  0.00  0.00    +0.000 HD
ATOM     17  N   UNK     1     -19.652  12.746  -2.795  0.00  0.00    +0.000 N 
ENDBRANCH  14  17
ENDBRANCH  15  23
BRANCH  10  13
ATOM      9  H   UNK     1     -14.466  12.314   0.455  0.00  0.00    +0.000 HD
ATOM     13  O   UNK     1     -14.812  12.966   1.082  0.00  0.00    +0.000 OA
ENDBRANCH  10  13
BRANCH  16  18
ATOM     12  H   UNK     1     -10.569  16.928   2.446  0.00  0.00    +0.000 HD
ATOM     18  O   UNK     1     -11.253  16.271   2.238  0.00  0.00    +0.000 OA
ENDBRANCH  16  18
TORSDOF 4
ENDMDL
MODEL 6
REMARK VINA RESULT:      -7.2      2.994      6.131
REMARK  Name = C:\Users\hp\OneDrive\Bureau\molecule article\SERIE MRZK\SERIE 4 A\DOC.9C8Q\lig5.pdb
REMARK  4 active torsions:
REMARK  status: ('A' for Active; 'I' for Inactive)
REMARK    1  A    between atoms: C_13  and  O_18
REMARK    2  A    between atoms: C_19  and  N_22
REMARK    3  A    between atoms: C_20  and  C_30
REMARK    4  A    between atoms: C_21  and  O_23
REMARK                            x       y       z     vdW  Elec       q    Type
REMARK                         _______ _______ _______ _____ _____    ______ ____
ROOT
ATOM      1  C   UNK     1     -12.684  13.975   2.239  0.00  0.00    +0.000 A 
ATOM      2  C   UNK     1     -11.509  14.354   2.750  0.00  0.00    +0.000 A 
ATOM      6  C   UNK     1     -11.017  15.548   2.402  0.00  0.00    +0.000 A 
ATOM      8  C   UNK     1     -13.369  14.760   1.388  0.00  0.00    +0.000 A 
ATOM     10  C   UNK     1     -14.752  16.252  -0.350  0.00  0.00    +0.000 A 
ATOM     11  O   UNK     1     -13.217  17.844  -0.163  0.00  0.00    +0.000 OA
ATOM     15  C   UNK     1     -15.223  15.024  -0.027  0.00  0.00    +0.000 A 
ATOM     16  C   UNK     1     -11.672  16.365   1.558  0.00  0.00    +0.000 A 
ATOM     19  O   UNK     1     -14.563  14.302   0.929  0.00  0.00    +0.000 OA
ATOM     20  C   UNK     1     -13.580  16.732   0.175  0.00  0.00    +0.000 A 
ATOM     24  C   UNK     1     -12.860  15.960   1.044  0.00  0.00    +0.000 A 
ENDROOT
BRANCH  15  23
ATOM      5  C   UNK     1     -18.668  13.984  -0.682  0.00  0.00    +0.000 A 
ATOM      7  C   UNK     1     -17.263  13.095  -2.268  0.00  0.00    +0.000 A 
ATOM     14  C   UNK     1     -18.500  13.226  -1.773  0.00  0.00    +0.000 A 
ATOM     21  C   UNK     1     -16.228  13.704  -1.668  0.00  0.00    +0.000 A 
ATOM     22  C   UNK     1     -17.615  14.581  -0.101  0.00  0.00    +0.000 A 
ATOM     23  C   UNK     1     -16.347  14.455  -0.547  0.00  0.00    +0.000 A 
BRANCH  14  17
ATOM      3  H   UNK     1     -19.350  12.102  -3.209  0.00  0.00    +0.000 HD
ATOM      4  H   UNK     1     -20.447  12.746  -1.916  0.00  0.00    +0.000 HD
ATOM     17  N   UNK     1     -19.487  12.659  -2.330  0.00  0.00    +0.000 N 
ENDBRANCH  14  17
ENDBRANCH  15  23
BRANCH  10  13
ATOM      9  H   UNK     1     -15.086  18.028  -0.992  0.00  0.00    +0.000 HD
ATOM     13  O   UNK     1     -15.422  17.134  -1.145  0.00  0.00    +0.000 OA
ENDBRANCH  10  13
BRANCH  16  18
ATOM     12  H   UNK     1     -10.207  17.392   0.867  0.00  0.00    +0.000 HD
ATOM     18  O   UNK     1     -11.074  17.556   1.272  0.00  0.00    +0.000 OA
ENDBRANCH  16  18
TORSDOF 4
ENDMDL
MODEL 7
REMARK VINA RESULT:      -7.0      3.918      6.851
REMARK  Name = C:\Users\hp\OneDrive\Bureau\molecule article\SERIE MRZK\SERIE 4 A\DOC.9C8Q\lig5.pdb
REMARK  4 active torsions:
REMARK  status: ('A' for Active; 'I' for Inactive)
REMARK    1  A    between atoms: C_13  and  O_18
REMARK    2  A    between atoms: C_19  and  N_22
REMARK    3  A    between atoms: C_20  and  C_30
REMARK    4  A    between atoms: C_21  and  O_23
REMARK                            x       y       z     vdW  Elec       q    Type
REMARK                         _______ _______ _______ _____ _____    ______ ____
ROOT
ATOM      1  C   UNK     1     -15.662  20.178  -1.791  0.00  0.00    +0.000 A 
ATOM      2  C   UNK     1     -14.872  21.226  -1.541  0.00  0.00    +0.000 A 
ATOM      6  C   UNK     1     -13.667  21.003  -1.005  0.00  0.00    +0.000 A 
ATOM      8  C   UNK     1     -15.274  18.920  -1.512  0.00  0.00    +0.000 A 
ATOM     10  C   UNK     1     -14.584  16.402  -0.929  0.00  0.00    +0.000 A 
ATOM     11  O   UNK     1     -12.605  17.133  -0.238  0.00  0.00    +0.000 OA
ATOM     15  C   UNK     1     -15.819  16.639  -1.432  0.00  0.00    +0.000 A 
ATOM     16  C   UNK     1     -13.239  19.761  -0.715  0.00  0.00    +0.000 A 
ATOM     19  O   UNK     1     -16.135  17.913  -1.813  0.00  0.00    +0.000 OA
ATOM     20  C   UNK     1     -13.697  17.421  -0.695  0.00  0.00    +0.000 A 
ATOM     24  C   UNK     1     -14.058  18.710  -0.969  0.00  0.00    +0.000 A 
ENDROOT
BRANCH  15  23
ATOM      5  C   UNK     1     -18.617  14.313  -1.057  0.00  0.00    +0.000 A 
ATOM      7  C   UNK     1     -17.761  14.176  -3.185  0.00  0.00    +0.000 A 
ATOM     14  C   UNK     1     -18.648  13.757  -2.275  0.00  0.00    +0.000 A 
ATOM     21  C   UNK     1     -16.862  15.121  -2.866  0.00  0.00    +0.000 A 
ATOM     22  C   UNK     1     -17.707  15.256  -0.764  0.00  0.00    +0.000 A 
ATOM     23  C   UNK     1     -16.774  15.689  -1.639  0.00  0.00    +0.000 A 
BRANCH  14  17
ATOM      3  H   UNK     1     -19.432  12.337  -3.464  0.00  0.00    +0.000 HD
ATOM      4  H   UNK     1     -20.292  12.661  -1.900  0.00  0.00    +0.000 HD
ATOM     17  N   UNK     1     -19.505  12.868  -2.562  0.00  0.00    +0.000 N 
ENDBRANCH  14  17
ENDBRANCH  15  23
BRANCH  10  13
ATOM      9  H   UNK     1     -13.252  15.040  -1.157  0.00  0.00    +0.000 HD
ATOM     13  O   UNK     1     -14.091  15.153  -0.689  0.00  0.00    +0.000 OA
ENDBRANCH  10  13
BRANCH  16  18
ATOM     12  H   UNK     1     -11.779  20.477   0.301  0.00  0.00    +0.000 HD
ATOM     18  O   UNK     1     -11.995  19.655  -0.168  0.00  0.00    +0.000 OA
ENDBRANCH  16  18
TORSDOF 4
ENDMDL
MODEL 8
REMARK VINA RESULT:      -6.9      4.226      6.649
REMARK  Name = C:\Users\hp\OneDrive\Bureau\molecule article\SERIE MRZK\SERIE 4 A\DOC.9C8Q\lig5.pdb
REMARK  4 active torsions:
REMARK  status: ('A' for Active; 'I' for Inactive)
REMARK    1  A    between atoms: C_13  and  O_18
REMARK    2  A    between atoms: C_19  and  N_22
REMARK    3  A    between atoms: C_20  and  C_30
REMARK    4  A    between atoms: C_21  and  O_23
REMARK                            x       y       z     vdW  Elec       q    Type
REMARK                         _______ _______ _______ _____ _____    ______ ____
ROOT
ATOM      1  C   UNK     1     -12.783  17.985  -1.307  0.00  0.00    +0.000 A 
ATOM      2  C   UNK     1     -11.916  19.000  -1.249  0.00  0.00    +0.000 A 
ATOM      6  C   UNK     1     -12.397  20.248  -1.209  0.00  0.00    +0.000 A 
ATOM      8  C   UNK     1     -14.112  18.193  -1.331  0.00  0.00    +0.000 A 
ATOM     10  C   UNK     1     -16.762  18.542  -1.437  0.00  0.00    +0.000 A 
ATOM     11  O   UNK     1     -16.453  20.733  -1.256  0.00  0.00    +0.000 OA
ATOM     15  C   UNK     1     -16.267  17.284  -1.520  0.00  0.00    +0.000 A 
ATOM     16  C   UNK     1     -13.719  20.499  -1.228  0.00  0.00    +0.000 A 
ATOM     19  O   UNK     1     -14.921  17.102  -1.375  0.00  0.00    +0.000 OA
ATOM     20  C   UNK     1     -15.938  19.631  -1.323  0.00  0.00    +0.000 A 
ATOM     24  C   UNK     1     -14.582  19.455  -1.293  0.00  0.00    +0.000 A 
ENDROOT
BRANCH  15  23
ATOM      5  C   UNK     1     -17.838  14.266  -2.863  0.00  0.00    +0.000 A 
ATOM      7  C   UNK     1     -18.553  14.633  -0.710  0.00  0.00    +0.000 A 
ATOM     14  C   UNK     1     -18.596  13.892  -1.824  0.00  0.00    +0.000 A 
ATOM     21  C   UNK     1     -17.776  15.727  -0.656  0.00  0.00    +0.000 A 
ATOM     22  C   UNK     1     -17.070  15.365  -2.783  0.00  0.00    +0.000 A 
ATOM     23  C   UNK     1     -17.017  16.159  -1.691  0.00  0.00    +0.000 A 
BRANCH  14  17
ATOM      3  H   UNK     1     -18.891  11.920  -2.088  0.00  0.00    +0.000 HD
ATOM      4  H   UNK     1     -20.359  12.929  -1.744  0.00  0.00    +0.000 HD
ATOM     17  N   UNK     1     -19.323  12.856  -1.889  0.00  0.00    +0.000 N 
ENDBRANCH  14  17
ENDBRANCH  15  23
BRANCH  10  13
ATOM      9  H   UNK     1     -18.533  18.483  -2.171  0.00  0.00    +0.000 HD
ATOM     13  O   UNK     1     -18.094  18.830  -1.382  0.00  0.00    +0.000 OA
ENDBRANCH  10  13
BRANCH  16  18
ATOM     12  H   UNK     1     -14.672  22.002  -1.941  0.00  0.00    +0.000 HD
ATOM     18  O   UNK     1     -14.092  21.809  -1.187  0.00  0.00    +0.000 OA
ENDBRANCH  16  18
TORSDOF 4
ENDMDL
MODEL 9
REMARK VINA RESULT:      -6.8      3.798      5.308
REMARK  Name = C:\Users\hp\OneDrive\Bureau\molecule article\SERIE MRZK\SERIE 4 A\DOC.9C8Q\lig5.pdb
REMARK  4 active torsions:
REMARK  status: ('A' for Active; 'I' for Inactive)
REMARK    1  A    between atoms: C_13  and  O_18
REMARK    2  A    between atoms: C_19  and  N_22
REMARK    3  A    between atoms: C_20  and  C_30
REMARK    4  A    between atoms: C_21  and  O_23
REMARK                            x       y       z     vdW  Elec       q    Type
REMARK                         _______ _______ _______ _____ _____    ______ ____
ROOT
ATOM      1  C   UNK     1     -17.230  14.735  -2.523  0.00  0.00    +0.000 A 
ATOM      2  C   UNK     1     -17.380  13.427  -2.298  0.00  0.00    +0.000 A 
ATOM      6  C   UNK     1     -16.702  12.871  -1.288  0.00  0.00    +0.000 A 
ATOM      8  C   UNK     1     -16.416  15.492  -1.766  0.00  0.00    +0.000 A 
ATOM     10  C   UNK     1     -14.771  17.040  -0.333  0.00  0.00    +0.000 A 
ATOM     11  O   UNK     1     -14.290  15.293   0.950  0.00  0.00    +0.000 OA
ATOM     15  C   UNK     1     -15.428  17.586  -1.383  0.00  0.00    +0.000 A 
ATOM     16  C   UNK     1     -15.880  13.594  -0.505  0.00  0.00    +0.000 A 
ATOM     19  O   UNK     1     -16.335  16.817  -2.057  0.00  0.00    +0.000 OA
ATOM     20  C   UNK     1     -14.914  15.716  -0.006  0.00  0.00    +0.000 A 
ATOM     24  C   UNK     1     -15.736  14.919  -0.753  0.00  0.00    +0.000 A 
ENDROOT
BRANCH  15  23
ATOM      5  C   UNK     1     -15.911  21.158  -2.006  0.00  0.00    +0.000 A 
ATOM      7  C   UNK     1     -13.963  20.445  -2.992  0.00  0.00    +0.000 A 
ATOM     14  C   UNK     1     -14.826  21.435  -2.740  0.00  0.00    +0.000 A 
ATOM     21  C   UNK     1     -14.198  19.208  -2.525  0.00  0.00    +0.000 A 
ATOM     22  C   UNK     1     -16.124  19.913  -1.550  0.00  0.00    +0.000 A 
ATOM     23  C   UNK     1     -15.296  18.876  -1.804  0.00  0.00    +0.000 A 
BRANCH  14  17
ATOM      3  H   UNK     1     -14.194  23.335  -2.544  0.00  0.00    +0.000 HD
ATOM      4  H   UNK     1     -14.862  22.858  -4.161  0.00  0.00    +0.000 HD
ATOM     17  N   UNK     1     -14.616  22.608  -3.173  0.00  0.00    +0.000 N 
ENDBRANCH  14  17
ENDBRANCH  15  23
BRANCH  10  13
ATOM      9  H   UNK     1     -13.326  17.171   0.922  0.00  0.00    +0.000 HD
ATOM     13  O   UNK     1     -13.987  17.755   0.524  0.00  0.00    +0.000 OA
ENDBRANCH  10  13
BRANCH  16  18
ATOM     12  H   UNK     1     -15.395  11.968   0.391  0.00  0.00    +0.000 HD
ATOM     18  O   UNK     1     -15.237  12.921   0.492  0.00  0.00    +0.000 OA
ENDBRANCH  16  18
TORSDOF 4
ENDMDL
MODEL 10
REMARK VINA RESULT:      -6.4      3.804      5.393
REMARK  Name = C:\Users\hp\OneDrive\Bureau\molecule article\SERIE MRZK\SERIE 4 A\DOC.9C8Q\lig5.pdb
REMARK  4 active torsions:
REMARK  status: ('A' for Active; 'I' for Inactive)
REMARK    1  A    between atoms: C_13  and  O_18
REMARK    2  A    between atoms: C_19  and  N_22
REMARK    3  A    between atoms: C_20  and  C_30
REMARK    4  A    between atoms: C_21  and  O_23
REMARK                            x       y       z     vdW  Elec       q    Type
REMARK                         _______ _______ _______ _____ _____    ______ ____
ROOT
ATOM      1  C   UNK     1     -14.869  17.641  -1.910  0.00  0.00    +0.000 A 
ATOM      2  C   UNK     1     -15.231  18.924  -1.812  0.00  0.00    +0.000 A 
ATOM      6  C   UNK     1     -16.440  19.209  -1.319  0.00  0.00    +0.000 A 
ATOM      8  C   UNK     1     -15.690  16.646  -1.531  0.00  0.00    +0.000 A 
ATOM     10  C   UNK     1     -17.299  14.620  -0.847  0.00  0.00    +0.000 A 
ATOM     11  O   UNK     1     -18.820  16.091  -0.177  0.00  0.00    +0.000 OA
ATOM     15  C   UNK     1     -16.089  14.338  -1.387  0.00  0.00    +0.000 A 
ATOM     16  C   UNK     1     -17.291  18.244  -0.925  0.00  0.00    +0.000 A 
ATOM     19  O   UNK     1     -15.235  15.371  -1.651  0.00  0.00    +0.000 OA
ATOM     20  C   UNK     1     -17.719  15.912  -0.666  0.00  0.00    +0.000 A 
ATOM     24  C   UNK     1     -16.908  16.948  -1.038  0.00  0.00    +0.000 A 
ENDROOT
BRANCH  15  23
ATOM      5  C   UNK     1     -15.702  10.897  -2.566  0.00  0.00    +0.000 A 
ATOM      7  C   UNK     1     -13.825  11.549  -1.413  0.00  0.00    +0.000 A 
ATOM     14  C   UNK     1     -14.485  10.602  -2.090  0.00  0.00    +0.000 A 
ATOM     21  C   UNK     1     -14.386  12.752  -1.213  0.00  0.00    +0.000 A 
ATOM     22  C   UNK     1     -16.240  12.108  -2.352  0.00  0.00    +0.000 A 
ATOM     23  C   UNK     1     -15.624  13.084  -1.650  0.00  0.00    +0.000 A 
BRANCH  14  17
ATOM      3  H   UNK     1     -13.904   9.074  -3.262  0.00  0.00    +0.000 HD
ATOM      4  H   UNK     1     -13.601   8.902  -1.482  0.00  0.00    +0.000 HD
ATOM     17  N   UNK     1     -13.968   9.463  -2.289  0.00  0.00    +0.000 N 
ENDBRANCH  14  17
ENDBRANCH  15  23
BRANCH  10  13
ATOM      9  H   UNK     1     -17.689  12.830  -0.281  0.00  0.00    +0.000 HD
ATOM     13  O   UNK     1     -18.156  13.672  -0.372  0.00  0.00    +0.000 OA
ENDBRANCH  10  13
BRANCH  16  18
ATOM     12  H   UNK     1     -19.077  17.882  -0.326  0.00  0.00    +0.000 HD
ATOM     18  O   UNK     1     -18.498  18.653  -0.441  0.00  0.00    +0.000 OA
ENDBRANCH  16  18
TORSDOF 4
ENDMDL
